python_files/WECC2470_int_idx.m
function mpc = WECC2470_int_idx
%WECC2470_INT_IDX

%% MATPOWER Case Format : Version 2
mpc.version = '2';

%%-----  Power Flow Data  -----%%
%% system MVA base
mpc.baseMVA = 100;

%% bus data
%	bus_i	type	Pd	Qd	Gs	Bs	area	Vm	Va	baseKV	zone	Vmax	Vmin	lam_P	lam_Q	mu_Vmax	mu_Vmin
mpc.bus = [
	1	1	0	0	172.84	-36.3	1	1.03416903	-22.4958957	345	1	1.1	0.9	20.0400	0.2200	0.0000	0.0000;
	2	1	0	0	150.66	13.11	1	1.03605579	-27.0592118	345	1	1.1	0.9	20.3900	0.2300	0.0000	0.0000;
	3	1	0	0	189.01	-81.46	1	1.03045588	-23.5030833	345	1	1.1	0.9	20.1200	0.2300	0.0000	0.0000;
	4	1	0	0	167.36	-43.66	1	1.02937478	-22.5548625	345	1	1.1	0.9	20.0700	0.1700	0.0000	0.0000;
	5	1	0	0	0	0	1	1.03032727	-22.4505557	345	1	1.1	0.9	20.0600	0.1700	0.0000	0.0000;
	6	1	0	0	188.04	-13.41	1	1.03941861	-24.5734281	345	1	1.1	0.9	20.2500	0.2400	0.0000	0.0000;
	7	1	0	0	185.06	1.65	1	1.03516499	-19.9418148	345	1	1.1	0.9	19.9100	0.1100	0.0000	0.0000;
	8	1	0	0	354.66	-219.25	1	1.01983868	-25.1723109	345	1	1.1	0.9	20.2800	0.2500	0.0000	0.0000;
	9	1	0	0	147.17	33.44	1	1.00668028	-22.4834999	345	1	1.1	0.9	20.0400	0.2000	0.0000	0.0000;
	10	1	0	0	188.88	-97.83	1	1.03935657	-22.3643741	345	1	1.1	0.9	20.0600	0.1900	0.0000	0.0000;
	11	1	55.17	29.09	0	0	1	1.03891287	-22.3910256	345	1	1.1	0.9	20.0600	0.1900	0.0000	0.0000;
	12	1	0	0	674.47	38.78	1	1.01654134	-23.5159153	345	1	1.1	0.9	20.1900	0.2400	0.0000	0.0000;
	13	1	0	0	642	-441.7	1	1.00648307	-24.7071568	345	1	1.1	0.9	20.2800	0.2700	0.0000	0.0000;
	14	1	52.71	12.35	0	0	1	1.00620999	-24.7390955	345	1	1.1	0.9	20.2900	0.2700	0.0000	0.0000;
	15	1	0	0	240.81	10	1	1.01011965	-24.1194752	345	1	1.1	0.9	20.2300	0.2500	0.0000	0.0000;
	16	1	0	0	178.71	22.14	1	1.01478577	-24.5103165	345	1	1.1	0.9	20.2800	0.2600	0.0000	0.0000;
	17	1	0	0	0	0	1	1.01501982	-24.3940021	345	1	1.1	0.9	20.2600	0.2600	0.0000	0.0000;
	18	1	0	0	316.25	13.84	1	1.02057316	-22.7694775	345	1	1.1	0.9	20.1400	0.2200	0.0000	0.0000;
	19	1	0	0	247.24	-34.38	1	1.02936141	-23.7323165	345	1	1.1	0.9	20.1900	0.2300	0.0000	0.0000;
	20	1	0	0	194.71	-131.92	1	1.01228317	-23.6957058	345	1	1.1	0.9	20.2000	0.2500	0.0000	0.0000;
	21	1	62.16	12.77	0	0	1	1.01197642	-23.73131	345	1	1.1	0.9	20.2100	0.2500	0.0000	0.0000;
	22	1	0	0	214.51	-49.19	1	1.0332316	-22.4899694	345	1	1.1	0.9	20.0800	0.2100	0.0000	0.0000;
	23	1	0	0	1246.2	-397.08	1	1.00835927	-23.9164287	345	1	1.1	0.9	20.2000	0.2500	0.0000	0.0000;
	24	1	0	0	786.84	-41.12	1	1.02224238	-24.3324989	345	1	1.1	0.9	20.2100	0.2400	0.0000	0.0000;
	25	1	0	0	212.87	-73.45	1	1.01314402	-23.9639994	345	1	1.1	0.9	20.2200	0.2500	0.0000	0.0000;
	26	1	0	0	168.07	-84.16	1	1.028775	-12.3953017	345	1	1.1	0.9	19.6300	0.0500	0.0000	0.0000;
	27	1	0	0	110.3	-20.24	1	1.03303759	-10.6782823	345	1	1.1	0.9	19.5200	0.0200	0.0000	0.0000;
	28	1	48.43	13.27	0	0	1	1.0327808	-10.7030972	345	1	1.1	0.9	19.5200	0.0200	0.0000	0.0000;
	29	1	0	0	126.16	-235.12	1	1.002108	-7.04531832	345	1	1.1	0.9	19.3400	0.0700	0.0000	0.0000;
	30	1	0	0	0	0	1	1.00398666	-6.91389784	345	1	1.1	0.9	19.3100	0.0700	0.0000	0.0000;
	31	1	0	0	0	0	1	1.002108	-7.04531832	345	1	1.1	0.9	19.3400	0.0700	0.0000	0.0000;
	32	1	0	0	0	0	1	1.04324734	-9.72281701	765	1	1.1	0.9	19.5000	0.0000	0.0000	0.0000;
	33	1	0	0	105.31	-12.76	1	1.04006396	-11.0523966	345	1	1.1	0.9	19.5200	0.0200	0.0000	0.0000;
	34	2	0	0	0	0	1	1.0172	-9.27657145	20	1	1.1	0.9	19.4900	0.0000	0.0000	0.0000;
	35	2	0	0	0	0	1	1.0172	-8.98933637	13.8	1	1.1	0.9	19.4900	0.0000	0.0000	0.0000;
	36	2	0	0	0	0	1	1.0158	-9.24096638	13.2	1	1.1	0.9	19.4900	0.0000	0.0000	0.0000;
	37	2	0	0	0	0	1	1.0178	-9.0918696	13.8	1	1.1	0.9	19.4900	0.0000	0.0000	0.0000;
	38	2	0	0	0	0	1	0.9989	-10.8059326	24	1	1.1	0.9	19.5200	0.0100	0.0000	0.0000;
	39	2	0	0	13.82	-43.97	1	0.9596	-2.67308325	13.8	1	1.1	0.9	19.2100	-0.0100	0.0000	0.0000;
	40	2	0	0	12.07	-1.15	1	1.0483	-19.7779195	13.2	1	1.1	0.9	19.6800	0.0000	0.0000	0.0000;
	41	2	0	0	12.21	-1.16	1	1.0484	-19.5261465	13.2	1	1.1	0.9	19.6800	0.0000	0.0000	0.0000;
	42	1	0	0	65.11	7.98	1	1.03860872	-14.024308	345	1	1.1	0.9	19.6400	0.1000	0.0000	0.0000;
	43	2	0	0	0	0	1	1.0012	-12.1477741	13.8	1	1.1	0.9	19.6100	0.1100	0.0000	0.0000;
	44	1	1.19	0.45	0	0	1	1.03860163	-14.0248882	345	1	1.1	0.9	19.6400	0.1000	0.0000	0.0000;
	45	1	0	0	0	0	1	1.0388504	-14.0081534	345	1	1.1	0.9	19.6400	0.1000	0.0000	0.0000;
	46	2	0	0	36.69	-5.84	1	1.0605	-7.14179237	18	1	1.1	0.9	19.2900	0.0000	0.0000	0.0000;
	47	1	0	0	0	-324	1	1.02881174	-9.64406243	765	1	1.1	0.9	19.4900	0.1300	0.0000	0.0000;
	48	1	0	0	107.18	-6.6	1	1.03733993	-12.1704234	345	1	1.1	0.9	19.5300	0.1300	0.0000	0.0000;
	49	2	0	0	0	0	1	1.0088	-8.60651124	13.8	1	1.1	0.9	19.4800	0.1300	0.0000	0.0000;
	50	2	0	0	0	0	1	1.0092	-8.842368	13.8	1	1.1	0.9	19.4800	0.1300	0.0000	0.0000;
	51	2	0	0	0	0	1	1.0089	-8.88117934	13.8	1	1.1	0.9	19.4800	0.1300	0.0000	0.0000;
	52	2	0	0	0	0	1	1.0093	-8.92249158	18	1	1.1	0.9	19.4800	0.1300	0.0000	0.0000;
	53	2	0	0	0	0	1	1.0158	-9.2988993	13.8	1	1.1	0.9	19.4900	0.1300	0.0000	0.0000;
	54	1	0.17	0.02	0	0	1	1.03322158	-9.92893	765	1	1.1	0.9	19.5300	0.0800	0.0000	0.0000;
	55	1	0	0	0	-1538	1	1.03327918	-10.2510157	765	1	1.1	0.9	19.5300	0.0800	0.0000	0.0000;
	56	1	0	0	80.03	-14.74	1	1.03672784	-11.8084801	345	1	1.1	0.9	19.5300	0.1100	0.0000	0.0000;
	57	2	0	0	0	0	1	0.9997	-9.82635871	20	1	1.1	0.9	19.5300	0.0800	0.0000	0.0000;
	58	2	0	0	0	0	1	1.0008	-9.55065547	18	1	1.1	0.9	19.5200	0.0800	0.0000	0.0000;
	59	2	0	0	0	0	1	1.0015	-9.69826354	13.8	1	1.1	0.9	19.5200	0.0700	0.0000	0.0000;
	60	2	0	0	0	0	1	1.0018	-9.66736054	18	1	1.1	0.9	19.5200	0.0800	0.0000	0.0000;
	61	2	0	0	0	0	1	1.0177	-22.1815611	345	1	1.1	0.9	20.1100	0.2300	0.0000	0.0000;
	62	2	0	0	320.33	1.23	1	1.0133	-25.3836301	138	1	1.1	0.9	20.2400	0.2200	0.0000	0.0000;
	63	1	0	0	0	0	1	1.02845492	-24.7734075	345	1	1.1	0.9	20.2200	0.2400	0.0000	0.0000;
	64	2	0	0	180.73	40.59	1	1.0172	-26.4793523	138	1	1.1	0.9	20.2300	0.2700	0.0000	0.0000;
	65	1	0	0	0	440	1	1.02859975	-18.8966937	765	1	1.1	0.9	19.9200	0.1600	0.0000	0.0000;
	66	1	0	0	242.96	-306.66	1	1.04607186	-21.5766444	345	1	1.1	0.9	20.0000	0.1800	0.0000	0.0000;
	67	2	0	0	0	0	1	1.0343	-18.2274673	24	1	1.1	0.9	19.9100	0.1600	0.0000	0.0000;
	68	2	0	0	0	0	1	1.0344	-18.2114862	13.8	1	1.1	0.9	19.9100	0.1600	0.0000	0.0000;
	69	1	0	0	0	0	1	1.02912332	-17.564417	765	1	1.1	0.9	19.7900	0.1600	0.0000	0.0000;
	70	1	0	0	28.09	3.03	1	1.02626442	-20.0107528	345	1	1.1	0.9	19.8300	0.1500	0.0000	0.0000;
	71	2	0	0	0	0	1	1.0294	-17.2711071	20	1	1.1	0.9	19.7800	0.1600	0.0000	0.0000;
	72	2	0	0	0	0	1	1.0292	-17.2042196	13.8	1	1.1	0.9	19.7800	0.1600	0.0000	0.0000;
	73	2	0	0	27	2.3	1	1.0004	-5.80208777	18	1	1.1	0.9	19.3500	0.1000	0.0000	0.0000;
	74	1	0	0	0	0	1	1.04282346	-6.89365629	765	1	1.1	0.9	19.3900	0.0500	0.0000	0.0000;
	75	1	0	0	53.35	-1.04	1	1.04244739	-8.25214143	345	1	1.1	0.9	19.3800	0.0700	0.0000	0.0000;
	76	2	0	0	0	0	1	1.0416	-5.3271663	13.8	1	1.1	0.9	19.3800	0.0500	0.0000	0.0000;
	77	2	0	0	0	0	1	1.0418	-5.86562438	13.8	1	1.1	0.9	19.3800	0.0500	0.0000	0.0000;
	78	2	0	0	0	0	1	1.0414	-5.45868259	13.8	1	1.1	0.9	19.3800	0.0500	0.0000	0.0000;
	79	2	0	0	0	0	1	1.041	-5.0678821	13.8	1	1.1	0.9	19.3700	0.0500	0.0000	0.0000;
	80	1	0	0	0	-109	1	1.03614507	-19.7297554	345	1	1.1	0.9	19.7900	0.0600	0.0000	0.0000;
	81	2	10.95	1.99	98.69	3.62	1	1.0231	-20.1534871	138	1	1.1	0.9	19.7300	0.0700	0.0000	0.0000;
	82	2	0	0	106.36	-4.42	1	1.0309	-18.0521059	345	1	1.1	0.9	19.7900	0.1900	0.0000	0.0000;
	83	2	0	0	158.16	21.14	1	0.999326433	-22.568075	345	1	1.1	0.9	20.0700	0.2200	0.0000	0.0000;
	84	1	0	0	0	0	1	0.99969628	-22.4296101	345	1	1.1	0.9	20.0500	0.2200	0.0000	0.0000;
	85	1	0	0	0	0	1	0.999326433	-22.568075	345	1	1.1	0.9	20.0700	0.2200	0.0000	0.0000;
	86	1	0	0	0	0	1	0.999326433	-22.568075	345	1	1.1	0.9	20.0700	0.2200	0.0000	0.0000;
	87	1	0	0	0	0	1	0.999326433	-22.568075	345	1	1.1	0.9	20.0700	0.2200	0.0000	0.0000;
	88	1	0	0	22.4	-108.32	1	1.03607284	-4.0700897	345	1	1.1	0.9	19.0900	0.0400	0.0000	0.0000;
	89	2	0	0	0	0	1	1.0283	-1.58149108	13.8	1	1.1	0.9	19.0600	0.0300	0.0000	0.0000;
	90	1	0	0	1.75	1.52	1	1.03152432	-16.503912	345	1	1.1	0.9	19.6800	0.1700	0.0000	0.0000;
	91	2	0	0	0	0	1	1.0383	-15.5597447	13.8	1	1.1	0.9	19.6600	0.1600	0.0000	0.0000;
	92	2	0	0	0	0	1	1.0393	-15.6413455	13.8	1	1.1	0.9	19.6600	0.1600	0.0000	0.0000;
	93	2	0	0	0	0	1	1.0372	-15.8817837	13.8	1	1.1	0.9	19.6700	0.1600	0.0000	0.0000;
	94	2	0	0	25.51	-4.56	1	1.006	-25.4588474	18	1	1.1	0.9	19.7600	0.0600	0.0000	0.0000;
	95	2	0	0	234.5	63.21	1	1.0192	-11.735685	138	1	1.1	0.9	19.5900	0.0300	0.0000	0.0000;
	96	2	0	0	5.63	-0.78	1	1.0143	-20.5159318	13.8	1	1.1	0.9	19.8500	0.1800	0.0000	0.0000;
	97	2	0	0	2.45	-0.29	1	1.0143	-19.313801	18	1	1.1	0.9	19.8200	0.1900	0.0000	0.0000;
	98	2	0	0	0	0	1	1.0192	-27.1270778	345	1	1.1	0.9	19.7000	0.0900	0.0000	0.0000;
	99	2	0	0	305.96	-2.45	1	1.0192	-27.3803095	138	1	1.1	0.9	19.8400	0.1100	0.0000	0.0000;
	100	1	0	0	0	0	1	1.01952149	-26.9529857	345	1	1.1	0.9	19.6800	0.1000	0.0000	0.0000;
	101	1	0	0	0	0	1	1.0192	-27.1270778	345	1	1.1	0.9	19.7000	0.0900	0.0000	0.0000;
	102	1	0	0	0	0	1	1.02053775	-15.3459377	345	1	1.1	0.9	19.7200	0.0900	0.0000	0.0000;
	103	1	0	0	86.5	-90.27	1	1.01245476	-6.09991114	345	1	1.1	0.9	19.2400	0.0900	0.0000	0.0000;
	104	2	0	0	0	0	1	0.9952	-4.86553381	20	1	1.1	0.9	19.2300	0.0900	0.0000	0.0000;
	105	1	13.86	3.24	0	0	1	1.01239064	-6.10774055	345	1	1.1	0.9	19.2400	0.0900	0.0000	0.0000;
	106	1	0	0	0	0	1	1.01344405	-6.06263298	345	1	1.1	0.9	19.2400	0.0900	0.0000	0.0000;
	107	1	0	0	92.86	11.13	1	1.04090554	-18.6757025	345	1	1.1	0.9	19.8100	0.0100	0.0000	0.0000;
	108	2	0	0	0	0	1	1.0438	-16.9550204	13.8	1	1.1	0.9	19.7900	0.0000	0.0000	0.0000;
	109	2	0	0	23.3	0.09	1	1.027	-11.9651423	18	1	1.1	0.9	19.5900	0.1000	0.0000	0.0000;
	110	1	9.92	1.97	0	0	1	1.04074875	-18.6409697	345	1	1.1	0.9	19.8100	0.0400	0.0000	0.0000;
	111	2	0	0	40.7	22.3	1	1.04	-12.4305709	138	1	1.1	0.9	19.1900	0.1400	0.0000	0.0000;
	112	2	0	0	36.72	6.44	1	1.0403	-25.365936	13.8	1	1.1	0.9	20.2700	0.3200	0.0000	0.0000;
	113	2	0	0	37.01	6.45	1	1.0403	-25.1361853	13.8	1	1.1	0.9	20.2600	0.3200	0.0000	0.0000;
	114	2	0	0	37.88	1.02	1	1.0221	-10.3918625	13.8	1	1.1	0.9	19.3000	0.2500	0.0000	0.0000;
	115	2	0	0	24.28	0.86	1	1.0221	-14.2776942	13.8	1	1.1	0.9	19.3800	0.2400	0.0000	0.0000;
	116	1	0	0	0	-254	1	1.04038001	-7.72229381	765	1	1.1	0.9	19.3500	0.0100	0.0000	0.0000;
	117	1	0	0	112.44	-10.66	1	1.03684649	-8.10133847	345	1	1.1	0.9	19.3600	0.0100	0.0000	0.0000;
	118	2	0	0	0	0	1	1.077	-1.53862666	13.8	1	1.1	0.9	19.3100	0.0000	0.0000	0.0000;
	119	1	0	0	0	0	1	1.03802888	-8.36751475	765	1	1.1	0.9	19.4500	0.0100	0.0000	0.0000;
	120	2	0	0	88.07	-3.21	1	1.0153	-21.2125035	345	1	1.1	0.9	19.9300	0.1700	0.0000	0.0000;
	121	2	0	0	61.6	-8.05	1	1.04	-5.71336813	345	1	1.1	0.9	19.3100	-0.0100	0.0000	0.0000;
	122	1	2.9	0.43	0	0	1	1.04052943	-5.70411776	345	1	1.1	0.9	19.3000	-0.0100	0.0000	0.0000;
	123	1	0	0	-5.7	-474.57	1	1.02336424	-3.73331467	765	1	1.1	0.9	19.1800	0.0900	0.0000	0.0000;
	124	1	0	0	123.9	-37.14	1	1.02821303	-4.49737179	345	1	1.1	0.9	19.1500	0.0700	0.0000	0.0000;
	125	2	0	0	0	0	1	1.0232	-3.1903941	24	1	1.1	0.9	19.1700	0.0900	0.0000	0.0000;
	126	2	0	0	0	0	1	1.0232	-3.08942861	13.8	1	1.1	0.9	19.1700	0.0900	0.0000	0.0000;
	127	2	0	0	0	0	1	1.0232	-3.09898016	20	1	1.1	0.9	19.1700	0.0900	0.0000	0.0000;
	128	2	0	0	0	0	1	1.0232	-3.26548922	18	1	1.1	0.9	19.1700	0.0900	0.0000	0.0000;
	129	2	0	0	0	0	1	1.0232	-3.230294	13.8	1	1.1	0.9	19.1700	0.0900	0.0000	0.0000;
	130	2	0	0	0	0	1	1.0232	-3.36141459	13.8	1	1.1	0.9	19.1800	0.0900	0.0000	0.0000;
	131	1	0	0	0	0	1	1.02771689	-4.09633668	765	1	1.1	0.9	19.2200	0.0400	0.0000	0.0000;
	132	2	0	0	867.73	35.36	1	1.0221	-25.8465642	138	1	1.1	0.9	20.1100	0.2400	0.0000	0.0000;
	133	2	0	0	212.16	-37.52	1	1.04	-23.2546844	345	1	1.1	0.9	20.1400	0.2100	0.0000	0.0000;
	134	2	0	0	0	0	1	1.038	-20.9224561	345	1	1.1	0.9	19.8600	0.1100	0.0000	0.0000;
	135	2	0	0	212.75	-16.68	1	1.0182	-23.45985	138	1	1.1	0.9	19.9100	0.1700	0.0000	0.0000;
	136	1	0	0	0	0	1	1.0310847	-6.5952754	765	1	1.1	0.9	19.3200	0.0500	0.0000	0.0000;
	137	1	0	0	77.59	-31.1	1	1.03265093	-7.0440809	345	1	1.1	0.9	19.3200	0.0400	0.0000	0.0000;
	138	2	0	0	0	0	1	1.0305	-5.94118847	13.8	1	1.1	0.9	19.3100	0.0500	0.0000	0.0000;
	139	2	0	0	0	0	1	1.0305	-6.09042061	13.8	1	1.1	0.9	19.3200	0.0500	0.0000	0.0000;
	140	2	0	0	0	0	1	1.0305	-6.07650182	18	1	1.1	0.9	19.3200	0.0500	0.0000	0.0000;
	141	2	0	0	0	0	1	1.0303	-5.83926213	13.8	1	1.1	0.9	19.3100	0.0500	0.0000	0.0000;
	142	2	0	0	0	0	1	1.0305	-6.09281934	13.8	1	1.1	0.9	19.3200	0.0500	0.0000	0.0000;
	143	2	0	0	0	0	1	1.0306	-6.01492125	13.8	1	1.1	0.9	19.3100	0.0500	0.0000	0.0000;
	144	1	0	0	0	0	1	1.03323554	-7.0400362	345	1	1.1	0.9	19.3200	0.0300	0.0000	0.0000;
	145	1	0	0	0	0	1	1.03036261	-6.86009132	765	1	1.1	0.9	19.3600	0.0500	0.0000	0.0000;
	146	1	0	0	0	0	1	1.03944215	-17.9095224	765	1	1.1	0.9	19.8700	0.1500	0.0000	0.0000;
	147	1	0	0	127.49	-34.27	1	1.03867939	-20.2721937	345	1	1.1	0.9	19.8900	0.1100	0.0000	0.0000;
	148	2	0	0	0	0	1	1.034	-16.8085386	13.8	1	1.1	0.9	19.8600	0.1500	0.0000	0.0000;
	149	1	0	0	0	0	1	1.0410973	-17.8057815	765	1	1.1	0.9	19.8500	0.1400	0.0000	0.0000;
	150	1	0	0	39.49	-0.62	1	1.0389961	-19.921907	345	1	1.1	0.9	19.8000	0.0700	0.0000	0.0000;
	151	2	0	0	0	0	1	1.0055	-18.4556571	18	1	1.1	0.9	19.7800	0.0600	0.0000	0.0000;
	152	2	0	0	0	0	1	1.0059	-17.6314061	13.8	1	1.1	0.9	19.7600	0.0600	0.0000	0.0000;
	153	2	0	0	28.71	-13.04	1	1.014	-21.6345772	18	1	1.1	0.9	20.2500	0.3500	0.0000	0.0000;
	154	2	0	0	17	-5.73	1	1.0021	-11.3545177	22	1	1.1	0.9	19.5800	0.0600	0.0000	0.0000;
	155	1	0	0	185.7	-59.14	1	1.01485452	-7.61530931	345	1	1.1	0.9	19.4100	0.0500	0.0000	0.0000;
	156	2	0	0	0	0	1	1.0226	-6.82026938	13.8	1	1.1	0.9	19.4000	0.0500	0.0000	0.0000;
	157	2	0	0	61.66	11.56	1	1.0192	-11.062337	138	1	1.1	0.9	19.5100	0.1000	0.0000	0.0000;
	158	1	0	0	0	0	1	1.03378202	-4.32872885	765	1	1.1	0.9	19.2200	0.0400	0.0000	0.0000;
	159	1	0	0	24.71	10.38	1	1.03594435	-5.07088926	345	1	1.1	0.9	19.2100	0.0400	0.0000	0.0000;
	160	2	0	0	0	0	1	1.0332	-4.01125489	13.8	1	1.1	0.9	19.2200	0.0400	0.0000	0.0000;
	161	2	0	0	0	0	1	1.0334	-3.99691346	18	1	1.1	0.9	19.2200	0.0400	0.0000	0.0000;
	162	2	0	0	0	0	1	1.0332	-3.94194403	13.8	1	1.1	0.9	19.2200	0.0400	0.0000	0.0000;
	163	2	0	0	0	0	1	1.0332	-3.70653111	18	1	1.1	0.9	19.2200	0.0400	0.0000	0.0000;
	164	1	0	0	0	0	1	1.03341272	-4.46859115	765	1	1.1	0.9	19.2500	0.0400	0.0000	0.0000;
	165	1	0	0	0	0	1	1.03378202	-4.32872885	765	1	1.1	0.9	19.2200	0.0400	0.0000	0.0000;
	166	1	0	0	33.26	-9.66	1	1.02743805	-25.8655709	345	1	1.1	0.9	19.6500	0.0100	0.0000	0.0000;
	167	2	0	0	0	0	1	1.0387	-24.476761	18	1	1.1	0.9	19.6300	0.0000	0.0000	0.0000;
	168	1	0	0	0	0	1	1.02690125	-25.8842722	345	1	1.1	0.9	19.6500	0.0200	0.0000	0.0000;
	169	1	0	0	0	0	1	1.02471842	-15.3838601	765	1	1.1	0.9	19.7200	0.0900	0.0000	0.0000;
	170	1	0	0	141.54	-120.57	1	1.04184405	-17.9926148	345	1	1.1	0.9	19.7800	0.0800	0.0000	0.0000;
	171	2	0	0	0	0	1	1.0245	-14.7979484	13.2	1	1.1	0.9	19.7100	0.0900	0.0000	0.0000;
	172	2	0	0	0	0	1	1.0244	-14.7577656	13.8	1	1.1	0.9	19.7100	0.0900	0.0000	0.0000;
	173	2	0	0	0	0	1	1.0248	-14.9776708	18	1	1.1	0.9	19.7100	0.0900	0.0000	0.0000;
	174	2	0	0	0	0	1	1.0247	-14.895768	18	1	1.1	0.9	19.7100	0.0900	0.0000	0.0000;
	175	1	0	0	28.52	3.59	1	1.03825838	-9.47478844	345	1	1.1	0.9	19.4500	0.0100	0.0000	0.0000;
	176	2	0	0	6.51	0.86	1	1.0263	-3.71633425	13.8	1	1.1	0.9	19.3500	0.0100	0.0000	0.0000;
	177	2	0	0	2.09	5.93	1	1.0489	-7.26551876	13.8	1	1.1	0.9	19.2400	0.0000	0.0000	0.0000;
	178	1	0	0	0	0	1	1.04132813	-9.84214158	765	1	1.1	0.9	19.5000	0.0300	0.0000	0.0000;
	179	1	0	0	52.03	-1.93	1	1.04192745	-10.8363133	345	1	1.1	0.9	19.4900	0.0200	0.0000	0.0000;
	180	2	0	0	0	0	1	1.0341	-9.27806166	18	1	1.1	0.9	19.5000	0.0300	0.0000	0.0000;
	181	2	0	0	0	0	1	1.028	-9.51926168	18	1	1.1	0.9	19.5000	0.0300	0.0000	0.0000;
	182	2	0	0	0	0	1	1.0279	-9.37957904	13.8	1	1.1	0.9	19.5000	0.0300	0.0000	0.0000;
	183	2	0	0	0	0	1	1.0283	-9.7722772	18	1	1.1	0.9	19.5000	0.0300	0.0000	0.0000;
	184	1	0	0	0	0	1	1.04178297	-10.9701518	345	1	1.1	0.9	19.5100	0.0100	0.0000	0.0000;
	185	1	0	0	0	-666	1	1.02595124	-13.057438	765	1	1.1	0.9	19.5900	0.1200	0.0000	0.0000;
	186	1	0	0	52.93	7.06	1	1.02992317	-15.102272	345	1	1.1	0.9	19.6000	0.1600	0.0000	0.0000;
	187	2	0	0	0	0	1	1.0319	-12.0812646	22	1	1.1	0.9	19.5800	0.1300	0.0000	0.0000;
	188	2	0	0	0	0	1	1.0322	-12.484155	13.8	1	1.1	0.9	19.5800	0.1300	0.0000	0.0000;
	189	2	0	0	151.81	-18.56	1	1.0391	-26.8074391	138	1	1.1	0.9	19.7100	0.0900	0.0000	0.0000;
	190	2	0	0	15.32	0.49	1	1.0157	-21.7050587	18	1	1.1	0.9	20.3500	0.2800	0.0000	0.0000;
	191	1	0	0	77.21	-18.45	1	1.04278001	-19.3947914	345	1	1.1	0.9	19.8000	0.0100	0.0000	0.0000;
	192	2	0	0	0	0	1	1.062	-17.9384407	13.8	1	1.1	0.9	19.7900	0.0000	0.0000	0.0000;
	193	2	0	0	0	0	1	1.0518	-17.7035997	13.8	1	1.1	0.9	19.7900	0.0000	0.0000	0.0000;
	194	2	0	0	0	0	1	1.0591	-15.9405507	13.8	1	1.1	0.9	19.7600	0.0000	0.0000	0.0000;
	195	2	0	0	153.14	81.03	1	1.0192	-13.4328315	138	1	1.1	0.9	19.3600	0.1100	0.0000	0.0000;
	196	2	0	0	138.52	47.73	1	1.0172	-22.1066285	138	1	1.1	0.9	19.8700	0.2200	0.0000	0.0000;
	197	2	0	0	11.37	-0.35	1	1.039	-19.8040266	13.8	1	1.1	0.9	19.8700	0.2500	0.0000	0.0000;
	198	1	0	0	0	0	1	1.03415651	-5.15822734	765	1	1.1	0.9	19.2800	0.0400	0.0000	0.0000;
	199	1	0	0	71.47	0.84	1	1.03557237	-6.1107255	345	1	1.1	0.9	19.2700	0.0400	0.0000	0.0000;
	200	2	0	0	0	0	1	1.0334	-4.38726048	24	1	1.1	0.9	19.2800	0.0400	0.0000	0.0000;
...
];

%% generator data
%	bus	Pg	Qg	Qmax	Qmin	Vg	mBase	status	Pmax	Pmin	Pc1	Pc2	Qc1min	Qc1max	Qc2min	Qc2max	ramp_agc	ramp_10	ramp_30	ramp_q	apf	mu_Pmax	mu_Pmin	mu_Qmax	mu_Qmin
mpc.gen = [
	34	85.29	59.1084684	61.16	61.16	1.0172	201.13	1	85.29	85.29	0	0	0	0	0	0	0	0	0	0	159.2667	0.0000	0.0000	0.0000	0.0000;
	35	138.65	58.521435	61.16	61.16	1.0172	217.36	1	138.65	138.65	0	0	0	0	0	0	0	0	0	0	159.2667	0.0000	0.0000	0.0000	0.0000;
	36	120.63	57.6361261	61.16	61.16	1.0158	188.08	1	120.63	120.63	0	0	0	0	0	0	0	0	0	0	159.2667	0.0000	0.0000	0.0000	0.0000;
	37	109.93	59.4698245	61.16	61.16	1.0178	201.28	1	109.93	109.93	0	0	0	0	0	0	0	0	0	0	159.2667	0.0000	0.0000	0.0000	0.0000;
	38	9.02	4.95046731	4.95	4.95	0.9989	12.9	1	9.02	9.02	0	0	0	0	0	0	0	0	0	0	12.9	0.0000	0.0000	0.0000	0.0000;
	39	59.72	20.084115	21.07	21.07	0.9596	98.92	1	59.72	59.72	0	0	0	0	0	0	0	0	0	0	98.9	0.0000	0.0000	0.0000	0.0000;
	40	23.02	7.1162437	13.44	-1.71	1.0483	35.08	1	23.02	23.02	0	0	0	0	0	0	0	0	0	0	35	0.0000	0.0000	0.0000	0.0000;
	41	25.55	7.02028685	13.44	-1.71	1.0484	41.36	1	25.55	25.55	0	0	0	0	0	0	0	0	0	0	35	0.0000	0.0000	0.0000	0.0000;
	43	79.42	-14.4301021	21.45	-14.5	1.0012	120.64	1	79.42	79.42	0	0	0	0	0	0	0	0	0	0	100.7	0.0000	0.0000	0.0000	0.0000;
	46	136.3	15.6140413	29.03	-19.63	1.0605	174.64	1	136.3	136.3	0	0	0	0	0	0	0	0	0	0	136.3	0.0000	0.0000	0.0000	0.0000;
	49	171.16	-10.5670965	83.17	-10.61	1.0088	238.48	1	171.16	171.16	0	0	0	0	0	0	0	0	0	0	216.6	0.0000	0.0000	0.0000	0.0000;
	50	189.67	-10.234091	83.17	-10.61	1.0092	219.83	1	189.67	189.67	0	0	0	0	0	0	0	0	0	0	216.6	0.0000	0.0000	0.0000	0.0000;
	51	135.95	-10.7646942	83.17	-10.61	1.0089	219.92	1	135.95	135.95	0	0	0	0	0	0	0	0	0	0	216.6	0.0000	0.0000	0.0000	0.0000;
	52	189.37	-9.74543916	83.17	-10.61	1.0093	259.93	1	189.37	189.37	0	0	0	0	0	0	0	0	0	0	216.6	0.0000	0.0000	0.0000	0.0000;
	53	172.43	-10.6230153	83.17	-10.61	1.0158	279.75	1	172.43	172.43	0	0	0	0	0	0	0	0	0	0	216.6	0.0000	0.0000	0.0000	0.0000;
	57	82.25	40.9778114	40.28	40.28	0.9997	152.84	1	82.25	82.25	0	0	0	0	0	0	0	0	0	0	104.9	0.0000	0.0000	0.0000	0.0000;
	58	104.9	40.9981038	40.28	40.28	1.0008	115.76	1	104.9	104.9	0	0	0	0	0	0	0	0	0	0	104.9	0.0000	0.0000	0.0000	0.0000;
	59	71.29	40.2595932	40.28	40.28	1.0015	116.27	1	71.29	71.29	0	0	0	0	0	0	0	0	0	0	104.9	0.0000	0.0000	0.0000	0.0000;
	60	71.08	40.230009	40.28	40.28	1.0018	106.56	1	71.08	71.08	0	0	0	0	0	0	0	0	0	0	104.9	0.0000	0.0000	0.0000	0.0000;
	61	23.81	135.517283	10.73	-1.37	1.0177	32.27	1	23.81	23.81	0	0	0	0	0	0	0	0	0	0	27.95	0.0000	0.0000	0.0000	0.0000;
	61	0	0	10.73	-1.37	1.0177	35.8	0	27.95	6.98	0	0	0	0	0	0	0	0	0	0	27.95	0.0000	0.0000	0.0000	0.0000;
	62	0	0	10.73	-1.37	1.0133	27.95	0	27.95	6.03	0	0	0	0	0	0	0	0	0	0	27.95	0.0000	0.0000	0.0000	0.0000;
	62	20.46	-151.0958	10.73	-1.37	1.0133	32.33	1	20.46	20.46	0	0	0	0	0	0	0	0	0	0	27.95	0.0000	0.0000	0.0000	0.0000;
	64	0	0	6.5	-0.83	1.0172	18.62	0	16.92	5.64	0	0	0	0	0	0	0	0	0	0	16.92	0.0000	0.0000	0.0000	0.0000;
	64	0	0	6.5	-0.83	1.0172	21.25	0	16.92	6.86	0	0	0	0	0	0	0	0	0	0	16.92	0.0000	0.0000	0.0000	0.0000;
	64	0	0	6.5	-0.83	1.0172	16.92	0	16.92	3.04	0	0	0	0	0	0	0	0	0	0	16.92	0.0000	0.0000	0.0000	0.0000;
	64	9.83	-88.7223995	6.5	-0.83	1.0172	19.89	1	9.83	9.83	0	0	0	0	0	0	0	0	0	0	16.92	0.0000	0.0000	0.0000	0.0000;
	64	0	0	6.5	-0.83	1.0172	20.51	0	16.92	4.16	0	0	0	0	0	0	0	0	0	0	16.92	0.0000	0.0000	0.0000	0.0000;
	67	158.25	73.4852851	81.01	81.01	1.0343	193.29	1	159.15	72.55	0	0	0	0	0	0	0	0	0	0	159.15	0.0000	0.0000	0.0000	0.0000;
	68	158.25	73.3189596	81.01	81.01	1.0344	195.43	1	159.15	58.54	0	0	0	0	0	0	0	0	0	0	159.15	0.0000	0.0000	0.0000	0.0000;
	71	80	3.22416628	30.72	-3.92	1.0294	96.14	1	80	80	0	0	0	0	0	0	0	0	0	0	80	0.0000	0.0000	0.0000	0.0000;
	72	64.23	0.095753139	30.72	-3.92	1.0292	106.35	1	64.23	64.23	0	0	0	0	0	0	0	0	0	0	80	0.0000	0.0000	0.0000	0.0000;
	73	66.35	-19.3431454	19.17	-12.96	1.0004	98.26	1	66.35	66.35	0	0	0	0	0	0	0	0	0	0	90	0.0000	0.0000	0.0000	0.0000;
	76	409.37	-16.7776525	157.2	-20.06	1.0416	498.65	1	409.37	409.37	0	0	0	0	0	0	0	0	0	0	409.37	0.0000	0.0000	0.0000	0.0000;
	77	293.05	-16.8048549	157.2	-20.06	1.0418	417.45	1	293.05	293.05	0	0	0	0	0	0	0	0	0	0	409.3667	0.0000	0.0000	0.0000	0.0000;
	78	323.1	-17.2993456	157.2	-20.06	1.0414	487.04	1	323.1	323.1	0	0	0	0	0	0	0	0	0	0	409.3667	0.0000	0.0000	0.0000	0.0000;
	79	333.93	-17.6292465	157.2	-20.06	1.041	548.59	1	333.93	333.93	0	0	0	0	0	0	0	0	0	0	409.37	0.0000	0.0000	0.0000	0.0000;
	81	40.5	-28.4773431	15.55	-1.98	1.0231	45.68	1	40.5	40.5	0	0	0	0	0	0	0	0	0	0	40.5	0.0000	0.0000	0.0000	0.0000;
	81	40.5	-28.4773431	15.55	-1.98	1.0231	47.33	1	40.5	40.5	0	0	0	0	0	0	0	0	0	0	40.5	0.0000	0.0000	0.0000	0.0000;
	81	28.94	-28.4773431	15.55	-1.98	1.0231	57.72	1	28.94	28.94	0	0	0	0	0	0	0	0	0	0	40.5	0.0000	0.0000	0.0000	0.0000;
	81	0	0	15.55	-1.98	1.0231	56.8	0	40.5	9.58	0	0	0	0	0	0	0	0	0	0	40.5	0.0000	0.0000	0.0000	0.0000;
	82	0	0	21.35	-2.72	1.04	64.74	0	55.6	19.42	0	0	0	0	0	0	0	0	0	0	55.6	0.0000	0.0000	0.0000	0.0000;
	82	55.6	26.8014517	21.35	21.35	1.0309	63.99	1	55.6	55.6	0	0	0	0	0	0	0	0	0	0	55.6	0.0000	0.0000	0.0000	0.0000;
	83	0	0	0	0	1.04	69.12	0	61.5	13.06	0	0	0	0	0	0	0	0	0	0	61.5	0.0000	0.0000	0.0000	0.0000;
	89	212.51	55.76621	56.83	56.83	1.0283	301.55	1	212.51	212.51	0	0	0	0	0	0	0	0	0	0	266.8	0.0000	0.0000	0.0000	0.0000;
	91	51.82	20.1346514	19.9	19.9	1.0383	72.35	1	51.82	51.82	0	0	0	0	0	0	0	0	0	0	51.825	0.0000	0.0000	0.0000	0.0000;
	92	41.62	20.1742136	19.9	19.9	1.0393	52.68	1	41.62	41.62	0	0	0	0	0	0	0	0	0	0	51.825	0.0000	0.0000	0.0000	0.0000;
	93	41.38	20.2366934	19.9	19.9	1.0372	57.61	1	41.38	41.38	0	0	0	0	0	0	0	0	0	0	51.825	0.0000	0.0000	0.0000	0.0000;
	94	0	0	0	0	1.006	32.07	0	28	3.77	0	0	0	0	0	0	0	0	0	0	28	0.0000	0.0000	0.0000	0.0000;
	94	14.32	0.902695047	0	0	1.006	23.98	1	14.32	14.32	0	0	0	0	0	0	0	0	0	0	20	0.0000	0.0000	0.0000	0.0000;
	95	8.03	-6.53312137	3.84	-0.49	1.0192	11.56	1	8.03	8.03	0	0	0	0	0	0	0	0	0	0	10	0.0000	0.0000	0.0000	0.0000;
	95	14.8	-9.67605265	5.68	-0.73	1.0192	14.94	1	14.8	14.8	0	0	0	0	0	0	0	0	0	0	14.8	0.0000	0.0000	0.0000	0.0000;
	96	13.43	-6.25594052	0	0	1.0143	27.32	1	13.43	13.43	0	0	0	0	0	0	0	0	0	0	18.3333	0.0000	0.0000	0.0000	0.0000;
	96	14.65	-6.25594052	0	0	1.0143	18.63	1	14.65	14.65	0	0	0	0	0	0	0	0	0	0	18.3333	0.0000	0.0000	0.0000	0.0000;
	97	13.24	-3.9201775	0	0	1.0143	22.11	1	13.24	13.24	0	0	0	0	0	0	0	0	0	0	18.3333	0.0000	0.0000	0.0000	0.0000;
	98	17.21	-85.6180724	0	0	1.0192	43.83	1	17.21	17.21	0	0	0	0	0	0	0	0	0	0	39.4	0.0000	0.0000	0.0000	0.0000;
	98	42.83	-85.6180724	0	0	1.0192	64.64	1	42.83	42.83	0	0	0	0	0	0	0	0	0	0	58.2	0.0000	0.0000	0.0000	0.0000;
	99	39.4	-26.5599253	0	0	1.0192	44.46	1	39.4	39.4	0	0	0	0	0	0	0	0	0	0	39.4	0.0000	0.0000	0.0000	0.0000;
	99	31.08	-26.5599253	0	0	1.0192	49.64	1	31.08	31.08	0	0	0	0	0	0	0	0	0	0	39.4	0.0000	0.0000	0.0000	0.0000;
	104	58.2	19.9236343	22.43	22.43	0.9952	136.19	1	58.2	58.2	0	0	0	0	0	0	0	0	0	0	105.3	0.0000	0.0000	0.0000	0.0000;
	108	41.46	12.3766964	21.23	-4.63	1.0438	62.55	1	41.7	8.83	0	0	0	0	0	0	0	0	0	0	41.7	0.0000	0.0000	0.0000	0.0000;
	108	41.46	12.3766964	21.23	-4.63	1.0438	41.7	1	41.7	16.64	0	0	0	0	0	0	0	0	0	0	41.7	0.0000	0.0000	0.0000	0.0000;
	109	41.46	-1.11207973	21.23	-4.63	1.027	41.7	1	41.7	13.81	0	0	0	0	0	0	0	0	0	0	41.7	0.0000	0.0000	0.0000	0.0000;
	111	82.34	48.8376043	20.83	-14.08	1.04	129.15	1	82.34	82.34	0	0	0	0	0	0	0	0	0	0	97.8	0.0000	0.0000	0.0000	0.0000;
	112	10.22	1.69564261	4.61	-0.59	1.0403	14.15	1	10.22	10.22	0	0	0	0	0	0	0	0	0	0	12	0.0000	0.0000	0.0000	0.0000;
	113	12	1.55616803	4.61	-0.59	1.0403	12.12	1	12	12	0	0	0	0	0	0	0	0	0	0	12	0.0000	0.0000	0.0000	0.0000;
	114	34.74	-2.31688294	17.51	-2.23	1.0221	52.42	1	34.74	34.74	0	0	0	0	0	0	0	0	0	0	45.6	0.0000	0.0000	0.0000	0.0000;
	114	42.97	-2.31688294	17.51	-2.23	1.0221	61.48	1	42.97	42.97	0	0	0	0	0	0	0	0	0	0	45.6	0.0000	0.0000	0.0000	0.0000;
	115	0	0	17.51	-2.23	1.0221	68.4	0	45.6	21.01	0	0	0	0	0	0	0	0	0	0	45.6	0.0000	0.0000	0.0000	0.0000;
	115	30.26	-3.69297688	17.51	-2.23	1.0221	51.24	1	30.26	30.26	0	0	0	0	0	0	0	0	0	0	45.6	0.0000	0.0000	0.0000	0.0000;
	118	1193.21	439.489921	441.6	-98.4	1.077	1400.38	1	1200	469.13	0	0	0	0	0	0	0	0	0	0	1200	0.0000	0.0000	0.0000	0.0000;
	120	56.32	-79.0781214	25.73	-3.28	1.0153	74.5	1	56.32	56.32	0	0	0	0	0	0	0	0	0	0	67	0.0000	0.0000	0.0000	0.0000;
	120	0	0	25.73	-3.28	1.0153	91.7	0	67	30.37	0	0	0	0	0	0	0	0	0	0	67	0.0000	0.0000	0.0000	0.0000;
	121	50.7	-31.5298548	0	0	1.04	68.96	1	50.7	50.7	0	0	0	0	0	0	0	0	0	0	50.7	0.0000	0.0000	0.0000	0.0000;
	125	75.24	-1.69993056	51.84	-6.62	1.0232	168.3	1	75.24	75.24	0	0	0	0	0	0	0	0	0	0	135	0.0000	0.0000	0.0000	0.0000;
	126	135	-2.87388168	51.84	-6.62	1.0232	159.7	1	135	135	0	0	0	0	0	0	0	0	0	0	135	0.0000	0.0000	0.0000	0.0000;
	127	106.15	-2.26396445	51.84	-6.62	1.0232	152.07	1	106.15	106.15	0	0	0	0	0	0	0	0	0	0	135	0.0000	0.0000	0.0000	0.0000;
	128	135	-3.70233789	51.84	-6.62	1.0232	143.54	1	135	135	0	0	0	0	0	0	0	0	0	0	135	0.0000	0.0000	0.0000	0.0000;
	129	88.14	-2.39986827	51.84	-6.62	1.0232	177.11	1	88.14	88.14	0	0	0	0	0	0	0	0	0	0	135	0.0000	0.0000	0.0000	0.0000;
	130	75.59	-2.49053338	51.84	-6.62	1.0232	175.15	1	75.59	75.59	0	0	0	0	0	0	0	0	0	0	135	0.0000	0.0000	0.0000	0.0000;
	132	88.4	-63.7034242	45.25	-9.87	1.0221	116.35	1	88.9	20.57	0	0	0	0	0	0	0	0	0	0	88.9	0.0000	0.0000	0.0000	0.0000;
	132	88.4	-63.7034242	45.25	-9.87	1.0221	90.43	1	88.9	14.92	0	0	0	0	0	0	0	0	0	0	88.9	0.0000	0.0000	0.0000	0.0000;
	133	45.58	249.304044	0	0	1.04	91.58	1	45.58	45.58	0	0	0	0	0	0	0	0	0	0	64	0.0000	0.0000	0.0000	0.0000;
	134	10.5	48.0131231	4.92	-0.63	1.038	12.8	1	10.5	10.5	0	0	0	0	0	0	0	0	0	0	12.8	0.0000	0.0000	0.0000	0.0000;
	134	8.22	48.0131231	4.92	-0.63	1.038	16.02	1	8.22	8.22	0	0	0	0	0	0	0	0	0	0	12.8	0.0000	0.0000	0.0000	0.0000;
	135	11.05	-39.4536221	4.92	-0.63	1.0182	13.06	1	11.05	11.05	0	0	0	0	0	0	0	0	0	0	12.8	0.0000	0.0000	0.0000	0.0000;
	135	0	0	4.92	-0.63	1.0182	14.28	0	12.8	3.56	0	0	0	0	0	0	0	0	0	0	12.8	0.0000	0.0000	0.0000	0.0000;
	135	8.89	-39.4536221	4.92	-0.63	1.0182	12.8	1	8.89	8.89	0	0	0	0	0	0	0	0	0	0	12.8	0.0000	0.0000	0.0000	0.0000;
	138	100.5	-5.76367982	38.59	-4.92	1.0305	118.86	1	100.5	100.5	0	0	0	0	0	0	0	0	0	0	100.5	0.0000	0.0000	0.0000	0.0000;
	139	78.52	-5.74021775	38.59	-4.92	1.0305	140.04	1	78.52	78.52	0	0	0	0	0	0	0	0	0	0	100.5	0.0000	0.0000	0.0000	0.0000;
	140	83.39	-5.84039321	38.59	-4.92	1.0305	128.45	1	83.39	83.39	0	0	0	0	0	0	0	0	0	0	100.5	0.0000	0.0000	0.0000	0.0000;
	141	87.3	-5.57307687	38.59	-4.92	1.0303	120.81	1	87.3	87.3	0	0	0	0	0	0	0	0	0	0	100.5	0.0000	0.0000	0.0000	0.0000;
	142	80.36	-5.97304468	38.59	-4.92	1.0305	108.12	1	80.36	80.36	0	0	0	0	0	0	0	0	0	0	100.5	0.0000	0.0000	0.0000	0.0000;
	143	99.06	-5.49488184	38.59	-4.92	1.0306	100.5	1	99.06	99.06	0	0	0	0	0	0	0	0	0	0	100.5	0.0000	0.0000	0.0000	0.0000;
	148	321.72	-88.8875289	340.13	-89.05	1.034	887.05	1	729.9	312.19	0	0	0	0	0	0	0	0	0	0	729.9	0.0000	0.0000	0.0000	0.0000;
	151	103.61	64.6424018	57.6	57.6	1.0055	187.87	1	103.61	103.61	0	0	0	0	0	0	0	0	0	0	150	0.0000	0.0000	0.0000	0.0000;
	152	110.96	62.5831031	57.6	57.6	1.0059	209	1	110.96	110.96	0	0	0	0	0	0	0	0	0	0	150	0.0000	0.0000	0.0000	0.0000;
	153	11.12	6.67486429	5.76	-0.74	1.014	15.21	1	11.12	11.12	0	0	0	0	0	0	0	0	0	0	15	0.0000	0.0000	0.0000	0.0000;
	153	11.39	6.67486429	5.76	-0.74	1.014	20.37	1	11.39	11.39	0	0	0	0	0	0	0	0	0	0	15	0.0000	0.0000	0.0000	0.0000;
	154	0	0	3.84	-0.49	1.0206	10	0	10	3.11	0	0	0	0	0	0	0	0	0	0	10	0.0000	0.0000	0.0000	0.0000;
	154	10	3.84782133	3.84	3.84	1.0021	11.12	1	10	10	0	0	0	0	0	0	0	0	0	0	10	0.0000	0.0000	0.0000	0.0000;
	156	61.45	32.7843423	31.46	31.46	1.0226	90.38	1	61.8	28.09	0	0	0	0	0	0	0	0	0	0	61.8	0.0000	0.0000	0.0000	0.0000;
	157	21.91	-40.3514814	11.37	-1.45	1.0192	33.07	1	21.91	21.91	0	0	0	0	0	0	0	0	0	0	29.6	0.0000	0.0000	0.0000	0.0000;
	157	0	0	11.37	-1.45	1.0192	38.51	0	29.6	4.59	0	0	0	0	0	0	0	0	0	0	29.6	0.0000	0.0000	0.0000	0.0000;
	160	70.43	-7.80955235	51.84	-6.62	1.0332	149.8	1	70.43	70.43	0	0	0	0	0	0	0	0	0	0	135	0.0000	0.0000	0.0000	0.0000;
	161	109.22	-8.10709897	51.84	-6.62	1.0334	177	1	109.22	109.22	0	0	0	0	0	0	0	0	0	0	135	0.0000	0.0000	0.0000	0.0000;
	162	73.16	-6.79049927	51.84	-6.62	1.0332	178	1	73.16	73.16	0	0	0	0	0	0	0	0	0	0	135	0.0000	0.0000	0.0000	0.0000;
	163	118.13	-6.85929621	51.84	-6.62	1.0332	153.95	1	118.13	118.13	0	0	0	0	0	0	0	0	0	0	135	0.0000	0.0000	0.0000	0.0000;
	167	87.3	61.08588	44.69	-9.75	1.0387	110.05	1	87.8	43.63	0	0	0	0	0	0	0	0	0	0	87.8	0.0000	0.0000	0.0000	0.0000;
	171	93.47	-2.70844003	47.85	-10.43	1.0245	115.42	1	94	38.95	0	0	0	0	0	0	0	0	0	0	94	0.0000	0.0000	0.0000	0.0000;
	172	93.47	-3.38284805	47.85	-10.43	1.0244	108.98	1	94	11.61	0	0	0	0	0	0	0	0	0	0	94	0.0000	0.0000	0.0000	0.0000;
	173	93.47	0.207417687	47.85	-10.43	1.0248	118.83	1	94	28.67	0	0	0	0	0	0	0	0	0	0	94	0.0000	0.0000	0.0000	0.0000;
	174	93.47	-1.18628348	47.85	-10.43	1.0247	138.07	1	94	39.72	0	0	0	0	0	0	0	0	0	0	94	0.0000	0.0000	0.0000	0.0000;
	176	36.21	-6.00730533	17.66	-2.25	1.0263	61.88	1	36.21	36.21	0	0	0	0	0	0	0	0	0	0	46	0.0000	0.0000	0.0000	0.0000;
	177	37.13	-0.0894176447	10.65	-7.2	1.0489	64.29	1	37.13	37.13	0	0	0	0	0	0	0	0	0	0	50	0.0000	0.0000	0.0000	0.0000;
	180	115.41	-9.54598885	65.61	-8.37	1.0341	202.81	1	115.41	115.41	0	0	0	0	0	0	0	0	0	0	170.8667	0.0000	0.0000	0.0000	0.0000;
	181	99.62	-9.07899569	65.61	-8.37	1.028	185.54	1	99.62	99.62	0	0	0	0	0	0	0	0	0	0	170.8667	0.0000	0.0000	0.0000	0.0000;
	182	116.3	-9.07635376	65.61	-8.37	1.0279	246.02	1	116.3	116.3	0	0	0	0	0	0	0	0	0	0	170.87	0.0000	0.0000	0.0000	0.0000;
	183	7.23	-1.07592724	3.61	-0.46	1.0283	9.4	1	7.23	7.23	0	0	0	0	0	0	0	0	0	0	9.4	0.0000	0.0000	0.0000	0.0000;
	187	112.5	-3.89745309	43.2	-5.51	1.0319	148.42	1	112.5	112.5	0	0	0	0	0	0	0	0	0	0	112.5	0.0000	0.0000	0.0000	0.0000;
	188	93.79	-2.64412244	43.2	-5.51	1.0322	131.63	1	93.79	93.79	0	0	0	0	0	0	0	0	0	0	112.5	0.0000	0.0000	0.0000	0.0000;
	189	84.12	73.0918457	43.06	43.06	1.0391	107.98	1	84.6	19.89	0	0	0	0	0	0	0	0	0	0	84.6	0.0000	0.0000	0.0000	0.0000;
	189	84.12	73.0918457	43.06	43.06	1.0391	85.56	1	84.6	35	0	0	0	0	0	0	0	0	0	0	84.6	0.0000	0.0000	0.0000	0.0000;
	190	16.8	-0.0503099047	6.45	-0.82	1.0157	16.87	1	16.8	16.8	0	0	0	0	0	0	0	0	0	0	16.8	0.0000	0.0000	0.0000	0.0000;
	190	6.52	-0.0259157071	2.88	-0.37	1.0157	8.37	1	6.52	6.52	0	0	0	0	0	0	0	0	0	0	7.5	0.0000	0.0000	0.0000	0.0000;
	192	87.2	62.4421284	118.43	-25.83	1.062	310.59	1	232.67	84.16	0	0	0	0	0	0	0	0	0	0	232.6667	0.0000	0.0000	0.0000	0.0000;
	193	231.35	67.7567878	118.43	-25.83	1.0518	290.05	1	232.67	37.97	0	0	0	0	0	0	0	0	0	0	232.6667	0.0000	0.0000	0.0000	0.0000;
	194	231.35	63.0602831	118.43	-25.83	1.0591	261.17	1	232.67	90.77	0	0	0	0	0	0	0	0	0	0	232.6667	0.0000	0.0000	0.0000	0.0000;
	195	50	-250.793852	10.65	-7.2	1.0192	50	1	50	50	0	0	0	0	0	0	0	0	0	0	50	0.0000	0.0000	0.0000	0.0000;
	196	36	-17.0784222	13.82	-1.76	1.0172	39.66	1	36	36	0	0	0	0	0	0	0	0	0	0	36	0.0000	0.0000	0.0000	0.0000;
	196	36	-17.0784222	13.82	-1.76	1.0172	53.42	1	36	36	0	0	0	0	0	0	0	0	0	0	36	0.0000	0.0000	0.0000	0.0000;
	197	14.84	0.63098581	0	0	1.039	20.22	1	14.84	14.84	0	0	0	0	0	0	0	0	0	0	18	0.0000	0.0000	0.0000	0.0000;
	200	123.26	-7.34571506	51.84	-6.62	1.0334	147.93	1	123.26	123.26	0	0	0	0	0	0	0	0	0	0	135	0.0000	0.0000	0.0000	0.0000;
	201	118.78	-7.28349194	51.84	-6.62	1.0333	194.09	1	118.78	118.78	0	0	0	0	0	0	0	0	0	0	135	0.0000	0.0000	0.0000	0.0000;
	202	135	-7.12566952	51.84	-6.62	1.0337	154.67	1	135	135	0	0	0	0	0	0	0	0	0	0	135	0.0000	0.0000	0.0000	0.0000;
	203	109.12	-7.69025087	51.84	-6.62	1.0335	200.23	1	109.12	109.12	0	0	0	0	0	0	0	0	0	0	135	0.0000	0.0000	0.0000	0.0000;
	204	90.42	-7.45436024	51.84	-6.62	1.0336	172.19	1	90.42	90.42	0	0	0	0	0	0	0	0	0	0	135	0.0000	0.0000	0.0000	0.0000;
	206	32.11	10.4646716	13.06	-1.67	1.0191	34.02	1	32.11	32.11	0	0	0	0	0	0	0	0	0	0	34	0.0000	0.0000	0.0000	0.0000;
	206	17.04	10.4646716	13.06	-1.67	1.0191	41.9	1	17.04	17.04	0	0	0	0	0	0	0	0	0	0	34	0.0000	0.0000	0.0000	0.0000;
	208	221.29	33.2112279	55.85	55.85	0.9991	336.76	1	221.29	221.29	0	0	0	0	0	0	0	0	0	0	262.2	0.0000	0.0000	0.0000	0.0000;
	211	0	0	2.65	-0.34	1.0221	6.96	0	6.9	2.85	0	0	0	0	0	0	0	0	0	0	6.9	0.0000	0.0000	0.0000	0.0000;
	211	5.28	-0.293761604	2.65	-0.34	1.0221	9.31	1	5.28	5.28	0	0	0	0	0	0	0	0	0	0	6.9	0.0000	0.0000	0.0000	0.0000;
	211	20.12	-1.16581963	10.56	-1.35	1.0221	36	1	20.12	20.12	0	0	0	0	0	0	0	0	0	0	27.5	0.0000	0.0000	0.0000	0.0000;
	213	13.16	-3.00709755	6.72	-0.86	0.9959	18.98	1	13.16	13.16	0	0	0	0	0	0	0	0	0	0	17.5	0.0000	0.0000	0.0000	0.0000;
	213	17.5	-3.00709755	6.72	-0.86	0.9959	21.37	1	17.5	17.5	0	0	0	0	0	0	0	0	0	0	17.5	0.0000	0.0000	0.0000	0.0000;
	214	0	0	6.72	-0.86	0.9959	21.11	0	17.5	8.42	0	0	0	0	0	0	0	0	0	0	17.5	0.0000	0.0000	0.0000	0.0000;
	214	17.5	-6.63268766	6.72	-0.86	0.9959	19.51	1	17.5	17.5	0	0	0	0	0	0	0	0	0	0	17.5	0.0000	0.0000	0.0000	0.0000;
	216	95.9	19.2899542	20.43	20.43	1.0383	103.8	1	95.9	95.9	0	0	0	0	0	0	0	0	0	0	95.9	0.0000	0.0000	0.0000	0.0000;
	218	97.59	29.4588006	29.03	-19.63	1.0497	168.9	1	97.59	97.59	0	0	0	0	0	0	0	0	0	0	136.3	0.0000	0.0000	0.0000	0.0000;
	219	92.02	29.6365804	29.03	-19.63	1.0475	154.45	1	92.02	92.02	0	0	0	0	0	0	0	0	0	0	136.3	0.0000	0.0000	0.0000	0.0000;
	221	199	-42.7413833	42.39	-28.66	1.0323	199.13	1	199	199	0	0	0	0	0	0	0	0	0	0	199	0.0000	0.0000	0.0000	0.0000;
	224	215.44	-20.9521926	110.28	-24.05	1.0373	295.91	1	216.67	63.89	0	0	0	0	0	0	0	0	0	0	216.67	0.0000	0.0000	0.0000	0.0000;
	225	215.44	-20.2034703	110.28	-24.05	1.0375	242.35	1	216.67	56.96	0	0	0	0	0	0	0	0	0	0	216.6667	0.0000	0.0000	0.0000	0.0000;
	226	215.44	-19.3674673	110.28	-24.05	1.0379	322.3	1	216.67	22.69	0	0	0	0	0	0	0	0	0	0	216.67	0.0000	0.0000	0.0000	0.0000;
	227	20.62	-0.707485285	7.92	-1.01	1.0412	25.07	1	20.62	20.62	0	0	0	0	0	0	0	0	0	0	20.625	0.0000	0.0000	0.0000	0.0000;
	228	16.51	-4.87317613	9.6	-1.22	1.0048	34.25	1	16.51	16.51	0	0	0	0	0	0	0	0	0	0	25	0.0000	0.0000	0.0000	0.0000;
	228	25	-4.87317613	9.6	-1.22	1.0048	28.91	1	25	25	0	0	0	0	0	0	0	0	0	0	25	0.0000	0.0000	0.0000	0.0000;
	231	141.35	41.5698092	72.35	72.35	1.0167	171.01	1	142.15	44.8	0	0	0	0	0	0	0	0	0	0	142.15	0.0000	0.0000	0.0000	0.0000;
	232	141.35	48.8743483	72.35	72.35	1.018	185.88	1	142.15	15.96	0	0	0	0	0	0	0	0	0	0	142.15	0.0000	0.0000	0.0000	0.0000;
	233	21.6	11.7180943	8.29	8.29	1.029	27.1	1	21.6	21.6	0	0	0	0	0	0	0	0	0	0	21.6	0.0000	0.0000	0.0000	0.0000;
	234	16.3	13.0362544	8.29	8.29	1.0255	22.46	1	16.3	16.3	0	0	0	0	0	0	0	0	0	0	21.6	0.0000	0.0000	0.0000	0.0000;
	234	5.97	13.0362544	4.92	4.92	1.0255	19.2	1	5.97	5.97	0	0	0	0	0	0	0	0	0	0	12.8	0.0000	0.0000	0.0000	0.0000;
	237	812.69	332.600416	415.68	-53.04	1.0702	1169.43	1	812.69	812.69	0	0	0	0	0	0	0	0	0	0	1082.5	0.0000	0.0000	0.0000	0.0000;
	238	1082.5	333.536403	415.68	-53.04	1.064	1357.65	1	1082.5	1082.5	0	0	0	0	0	0	0	0	0	0	1082.5	0.0000	0.0000	0.0000	0.0000;
	239	885.08	333.206098	415.68	-53.04	1.0624	1082.5	1	885.08	885.08	0	0	0	0	0	0	0	0	0	0	1082.5	0.0000	0.0000	0.0000	0.0000;
	240	754.61	332.644049	415.68	-53.04	1.062	1299.87	1	754.61	754.61	0	0	0	0	0	0	0	0	0	0	1082.5	0.0000	0.0000	0.0000	0.0000;
	241	52.33	21.9691337	20.1	20.1	1.0431	59.07	1	52.33	52.33	0	0	0	0	0	0	0	0	0	0	52.3333	0.0000	0.0000	0.0000	0.0000;
	242	26.5	21.2357032	20.1	20.1	1.0436	56.77	1	26.5	26.5	0	0	0	0	0	0	0	0	0	0	52.3333	0.0000	0.0000	0.0000	0.0000;
	243	40.81	21.0632551	20.1	20.1	1.0431	66.3	1	40.81	40.81	0	0	0	0	0	0	0	0	0	0	52.3333	0.0000	0.0000	0.0000	0.0000;
	244	40.92	21.1304825	20.1	20.1	1.0431	61.62	1	40.92	40.92	0	0	0	0	0	0	0	0	0	0	52.3333	0.0000	0.0000	0.0000	0.0000;
	247	94.63	15.3900352	48.44	-10.56	1.0421	125.95	1	95.17	16.13	0	0	0	0	0	0	0	0	0	0	95.17	0.0000	0.0000	0.0000	0.0000;
	248	94.63	8.78548429	48.44	-10.56	1.0411	114.43	1	95.17	22.8	0	0	0	0	0	0	0	0	0	0	95.1667	0.0000	0.0000	0.0000	0.0000;
	249	94.63	8.80473926	48.44	-10.56	1.0411	118.26	1	95.17	21.44	0	0	0	0	0	0	0	0	0	0	95.1667	0.0000	0.0000	0.0000	0.0000;
	251	14.85	71.7986008	0	0	1.04	17.51	1	14.85	14.85	0	0	0	0	0	0	0	0	0	0	14.85	0.0000	0.0000	0.0000	0.0000;
	251	7.71	71.7986008	0	0	1.04	15.95	1	7.71	7.71	0	0	0	0	0	0	0	0	0	0	14.85	0.0000	0.0000	0.0000	0.0000;
	251	0	0	0	0	1.04	16.37	0	14.85	5.54	0	0	0	0	0	0	0	0	0	0	14.85	0.0000	0.0000	0.0000	0.0000;
	251	0	0	0	0	1.04	14.85	0	14.85	6.91	0	0	0	0	0	0	0	0	0	0	14.85	0.0000	0.0000	0.0000	0.0000;
	252	9.69	0.212287955	4.61	-0.59	1.0212	12	1	9.69	9.69	0	0	0	0	0	0	0	0	0	0	12	0.0000	0.0000	0.0000	0.0000;
	252	37.76	0.930752634	20.12	-2.57	1.0212	71.38	1	37.76	37.76	0	0	0	0	0	0	0	0	0	0	52.4	0.0000	0.0000	0.0000	0.0000;
	252	0	0	20.12	-2.57	1.0212	72.34	0	52.4	6.25	0	0	0	0	0	0	0	0	0	0	52.4	0.0000	0.0000	0.0000	0.0000;
	255	131.96	-1.6020139	66.55	-8.49	1.0353	213.54	1	131.96	131.96	0	0	0	0	0	0	0	0	0	0	173.3	0.0000	0.0000	0.0000	0.0000;
	256	129.26	-2.37857515	66.55	-8.49	1.0352	205.09	1	129.26	129.26	0	0	0	0	0	0	0	0	0	0	173.3	0.0000	0.0000	0.0000	0.0000;
	257	22.81	6.52781492	10.29	-1.31	1.04	31.77	1	22.81	22.81	0	0	0	0	0	0	0	0	0	0	26.8	0.0000	0.0000	0.0000	0.0000;
	259	246.6	129.397672	126.23	126.23	1.0356	301.43	1	248	115.79	0	0	0	0	0	0	0	0	0	0	248	0.0000	0.0000	0.0000	0.0000;
	260	44.37	-9.49386872	16.68	-11.28	1.0182	84.32	1	44.37	44.37	0	0	0	0	0	0	0	0	0	0	78.3	0.0000	0.0000	0.0000	0.0000;
	261	51.88	-9.0179555	16.68	-11.28	1.0182	87.82	1	51.88	51.88	0	0	0	0	0	0	0	0	0	0	78.3	0.0000	0.0000	0.0000	0.0000;
	262	6.59	7.29494385	3.07	3.07	1.0151	12	1	6.59	6.59	0	0	0	0	0	0	0	0	0	0	8	0.0000	0.0000	0.0000	0.0000;
	262	5.96	7.29494385	3.07	3.07	1.0151	12	1	5.96	5.96	0	0	0	0	0	0	0	0	0	0	8	0.0000	0.0000	0.0000	0.0000;
	262	6.19	7.29494385	3.07	3.07	1.0151	8.98	1	6.19	6.19	0	0	0	0	0	0	0	0	0	0	8	0.0000	0.0000	0.0000	0.0000;
	262	0	0	3.07	-0.39	1.0182	9.73	0	8	0.92	0	0	0	0	0	0	0	0	0	0	8	0.0000	0.0000	0.0000	0.0000;
	264	105.3	20.1373918	22.43	22.43	1.0411	131.75	1	105.3	105.3	0	0	0	0	0	0	0	0	0	0	105.3	0.0000	0.0000	0.0000	0.0000;
	265	105.3	20.2306246	22.43	22.43	1.0408	119.42	1	105.3	105.3	0	0	0	0	0	0	0	0	0	0	105.3	0.0000	0.0000	0.0000	0.0000;
	266	0	0	5.8	-1.27	1.0192	14.44	0	11.4	3.39	0	0	0	0	0	0	0	0	0	0	11.4	0.0000	0.0000	0.0000	0.0000;
	266	0	0	5.8	-1.27	1.0192	12.63	0	11.4	2.22	0	0	0	0	0	0	0	0	0	0	11.4	0.0000	0.0000	0.0000	0.0000;
	266	0	0	5.8	-1.27	1.0192	13.52	0	11.4	1.74	0	0	0	0	0	0	0	0	0	0	11.4	0.0000	0.0000	0.0000	0.0000;
	266	11.34	7.01796131	5.8	-1.27	1.0192	12.63	1	11.4	2.76	0	0	0	0	0	0	0	0	0	0	11.4	0.0000	0.0000	0.0000	0.0000;
	268	130.66	37.4484635	37.68	37.68	1.0633	186.09	1	130.66	130.66	0	0	0	0	0	0	0	0	0	0	176.9	0.0000	0.0000	0.0000	0.0000;
	271	204	2.17059476	43.45	-29.38	1.0409	219.02	1	204	204	0	0	0	0	0	0	0	0	0	0	204	0.0000	0.0000	0.0000	0.0000;
	273	158.6	7.51991694	81.19	-17.7	1.0242	217.04	1	159.5	34.15	0	0	0	0	0	0	0	0	0	0	159.5	0.0000	0.0000	0.0000	0.0000;
	274	158.6	-1.07576712	81.19	-17.7	1.0225	217.26	1	159.5	28.31	0	0	0	0	0	0	0	0	0	0	159.5	0.0000	0.0000	0.0000	0.0000;
...
];

%% branch data
%	fbus	tbus	r	x	b	rateA	rateB	rateC	ratio	angle	status	angmin	angmax	Pf	Qf	Pt	Qt	mu_Sf	mu_St	mu_angmin	mu_angmax
mpc.branch = [
	1	2	0.010083	1.201721	0	0	0	0	0	0	1	0	0	7.0942	0.0607	-7.0894	0.5048	0.0000	0.0000	0.0000	0.0000;
	1	3	0.001396	0.016565	0.31452	1105.1	0	0	0	0	1	0	0	114.3079	-2.2768	-114.1346	-29.1842	0.0000	0.0000	0.0000	0.0000;
	1	3	0.021976	0.523853	0	0	0	0	0	0	1	0	0	3.6016	0.6134	-3.5988	-0.5480	0.0000	0.0000	0.0000	0.0000;
	1	64	0.076282	0.653508	0	0	0	0	0	0	1	0	0	11.3861	1.7451	-11.2915	-0.9344	0.0000	0.0000	0.0000	0.0000;
	1	197	0.047327	1.971414	0	0	0	0	0	0	1	0	0	-2.5629	-0.1318	2.5658	0.2532	0.0000	0.0000	0.0000	0.0000;
	1	223	0.000883	0.009393	0.17078	1237.08	0	0	0	0	1	0	0	-309.2141	-37.6972	310.0103	27.8018	0.0000	0.0000	0.0000	0.0000;
	1	223	0.020372	0.306612	0	0	0	0	0	0	1	0	0	-9.4660	-1.1366	9.4833	1.3972	0.0000	0.0000	0.0000	0.0000;
	63	2	0.002142	0.026863	0.58195	1150.4	0	0	0	0	1	0	0	155.1480	-69.0921	-154.6308	13.5676	0.0000	0.0000	0.0000	0.0000;
	63	3	0.000587	0.00738	0.21892	1205.73	0	0	0	0	1	0	0	-318.2808	-10.6174	318.8430	-5.5150	0.0000	0.0000	0.0000	0.0000;
	3	64	0.067981	0.584211	0	0	0	0	0	0	1	0	0	9.4876	1.4761	-9.4285	-0.9689	0.0000	0.0000	0.0000	0.0000;
	223	3	0.001084	0.012681	0.23685	1271.34	0	0	0	0	1	0	0	379.1385	39.5216	-377.6698	-47.7181	0.0000	0.0000	0.0000	0.0000;
	3	223	0.004289	0.141934	0	0	0	0	0	0	1	0	0	-33.6256	-5.0081	33.6723	6.5530	0.0000	0.0000	0.0000	0.0000;
	4	5	0.000237	0.001074	0	0	0	0	0	0	1	0	0	-190.6046	-49.0662	190.6912	49.4588	0.0000	0.0000	0.0000	0.0000;
	4	81	0.042881	0.471251	0	0	0	0	0	0	1	0	0	-9.1454	2.3991	9.1816	-2.0015	0.0000	0.0000	0.0000	0.0000;
	4	132	0.011462	0.160088	0	0	0	0	0	0	1	0	0	37.9550	3.0445	-37.7981	-0.8541	0.0000	0.0000	0.0000	0.0000;
	4	135	0.234677	1.807554	0	0	0	0	0	0	1	0	0	0.9828	0.5160	-0.9801	-0.4950	0.0000	0.0000	0.0000	0.0000;
	4	150	0.013766	1.201969	0	0	0	0	0	0	1	0	0	-4.0954	-0.6831	4.0976	0.8787	0.0000	0.0000	0.0000	0.0000;
	4	191	0.003046	0.476686	0	0	0	0	0	0	1	0	0	-12.4291	-2.4729	12.4337	3.1954	0.0000	0.0000	0.0000	0.0000;
	5	24	0.001137	0.014419	0.70236	1228.28	0	0	0	0	1	0	0	243.2369	5.2509	-242.5839	-70.9471	0.0000	0.0000	0.0000	0.0000;
	147	5	0.000837	0.00946	0.19427	1358.91	0	0	0	0	1	0	0	435.4283	50.8737	-433.9282	-54.7097	0.0000	0.0000	0.0000	0.0000;
	6	13	6.5e-05	2.393966	0	0	0	0	0	0	1	0	0	0.1020	1.4301	-0.1020	-1.3846	0.0000	0.0000	0.0000	0.0000;
	6	23	0.008484	0.635141	0	0	0	0	0	0	1	0	0	-1.8238	5.1181	1.8262	-4.9446	0.0000	0.0000	0.0000	0.0000;
	6	64	0.05454	0.999505	0	0	0	0	0	0	1	0	0	3.6366	2.1707	-3.6275	-2.0047	0.0000	0.0000	0.0000	0.0000;
	6	133	0.000957	0.012068	0.68187	1170.64	0	0	0	0	1	0	0	-205.0715	-23.2070	205.4457	-45.7847	0.0000	0.0000	0.0000	0.0000;
	12	7	0.001233	0.013303	0.39851	1345.52	0	0	0	0	1	0	0	-500.5781	-101.1200	503.6454	92.2716	0.0000	0.0000	0.0000	0.0000;
	7	82	0.006412	1.199693	0	0	0	0	0	0	1	0	0	-2.9309	0.4320	2.9315	-0.3338	0.0000	0.0000	0.0000	0.0000;
	7	99	0.070259	0.762267	0	0	0	0	0	0	1	0	0	18.0722	1.6671	-17.8563	0.6760	0.0000	0.0000	0.0000	0.0000;
	7	109	0.025233	1.780561	0	0	0	0	0	0	1	0	0	-8.2689	1.1696	8.2853	-0.0107	0.0000	0.0000	0.0000	0.0000;
	110	7	0.000771	0.009847	0.22998	1180.81	0	0	0	0	1	0	0	251.6790	29.6744	-251.2155	-48.5318	0.0000	0.0000	0.0000	0.0000;
	170	7	0.000749	0.008125	0.20696	1332.36	0	0	0	0	1	0	0	456.2066	40.0367	-454.7523	-46.5816	0.0000	0.0000	0.0000	0.0000;
	7	186	0.178763	2.387568	0	0	0	0	0	0	1	0	0	-3.7175	0.6648	3.7413	-0.3470	0.0000	0.0000	0.0000	0.0000;
	7	252	0.028985	2.123429	0	0	0	0	0	0	1	0	0	0.8634	0.6763	-0.8631	-0.6525	0.0000	0.0000	0.0000	0.0000;
	8	13	0.012068	2.160237	0	0	0	0	0	0	1	0	0	-0.3822	0.6342	0.3823	-0.6228	0.0000	0.0000	0.0000	0.0000;
	8	23	0.015539	0.613924	0	0	0	0	0	0	1	0	0	-3.6197	2.0388	3.6223	-1.9369	0.0000	0.0000	0.0000	0.0000;
	8	63	0.001135	0.014705	0.31386	1116.83	0	0	0	0	1	0	0	-53.9361	-71.7423	54.0013	39.6672	0.0000	0.0000	0.0000	0.0000;
	8	64	0.005661	0.233178	0	0	0	0	0	0	1	0	0	10.1728	1.0229	-10.1671	-0.7885	0.0000	0.0000	0.0000	0.0000;
	8	132	0.04605	0.870409	0	0	0	0	0	0	1	0	0	1.3918	-0.3303	-1.3909	0.3474	0.0000	0.0000	0.0000	0.0000;
	133	8	0.000935	0.011435	0.21946	1195.62	0	0	0	0	1	0	0	323.6307	150.2288	-322.4982	-159.6588	0.0000	0.0000	0.0000	0.0000;
	9	120	0.000777	0.010797	0.23745	1215.9	0	0	0	0	1	0	0	-214.4809	-74.6353	214.8636	55.6838	0.0000	0.0000	0.0000	0.0000;
	9	196	0.012513	0.27814	0	0	0	0	0	0	1	0	0	-2.5873	-3.6831	2.5898	3.7387	0.0000	0.0000	0.0000	0.0000;
	9	205	0.003317	1.44187	0	0	0	0	0	0	1	0	0	-1.2431	-0.5295	1.2431	0.5555	0.0000	0.0000	0.0000	0.0000;
	9	230	0.002347	0.029145	1.41418	1396.92	0	0	0	0	1	0	0	-560.2715	-176.3790	567.7954	118.3827	0.0000	0.0000	0.0000	0.0000;
	9	291	0.000613	0.007345	0.18007	1182.41	0	0	0	0	1	0	0	200.6858	62.6471	-200.4111	-77.4882	0.0000	0.0000	0.0000	0.0000;
	9	295	0.027034	2.351036	0	0	0	0	0	0	1	0	0	0.5562	0.0512	-0.5561	-0.0440	0.0000	0.0000	0.0000	0.0000;
	296	9	0.000462	0.005278	0.18198	1341.36	0	0	0	0	1	0	0	-436.8158	-234.4910	437.9494	229.2600	0.0000	0.0000	0.0000	0.0000;
	9	297	0.076057	2.261039	0	0	0	0	0	0	1	0	0	1.7640	-0.0934	-1.7616	0.1630	0.0000	0.0000	0.0000	0.0000;
	9	439	0.003445	0.407939	0	0	0	0	0	0	1	0	0	-11.5155	-2.7498	11.5202	3.3141	0.0000	0.0000	0.0000	0.0000;
	10	11	0.000278	0.001057	0	0	0	0	0	0	1	0	0	55.1800	29.1281	-55.1700	-29.0900	0.0000	0.0000	0.0000	0.0000;
	10	24	0.011414	1.829162	0	0	0	0	0	0	1	0	0	2.0011	0.9942	-2.0005	-0.9097	0.0000	0.0000	0.0000	0.0000;
	10	66	0.000402	0.005207	0.14362	1224.4	0	0	0	0	1	0	0	-295.4993	-117.0126	295.8687	106.1816	0.0000	0.0000	0.0000	0.0000;
	10	132	0.02387	0.271954	0	0	0	0	0	0	1	0	0	24.1819	5.1938	-24.0467	-3.6538	0.0000	0.0000	0.0000	0.0000;
	133	10	0.000493	0.006123	0.13508	1215.99	0	0	0	0	1	0	0	-271.4942	27.6144	271.8357	-37.9739	0.0000	0.0000	0.0000	0.0000;
	10	135	0.047047	1.993619	0	0	0	0	0	0	1	0	0	1.0405	1.0881	-1.0396	-1.0463	0.0000	0.0000	0.0000	0.0000;
	10	147	0.001289	0.014839	0.36138	1224.13	0	0	0	0	1	0	0	-262.7798	12.9002	263.6163	-42.2834	0.0000	0.0000	0.0000	0.0000;
	12	13	0.000699	0.008558	0.18453	1189.39	0	0	0	0	1	0	0	256.8014	91.5494	-256.2862	-104.1224	0.0000	0.0000	0.0000	0.0000;
	12	13	0.006259	0.254751	0	0	0	0	0	0	1	0	0	8.4452	3.8929	-8.4399	-3.6797	0.0000	0.0000	0.0000	0.0000;
	12	16	0.03031	1.775965	0	0	0	0	0	0	1	0	0	1.0096	0.0920	-1.0093	-0.0743	0.0000	0.0000	0.0000	0.0000;
	18	12	0.000511	0.0058	0.09927	1199.54	0	0	0	0	1	0	0	237.5637	46.3621	-237.2738	-53.3705	0.0000	0.0000	0.0000	0.0000;
	20	12	0.000276	0.003171	0.07881	1106.35	0	0	0	0	1	0	0	-112.7928	-129.9951	112.8698	122.7699	0.0000	0.0000	0.0000	0.0000;
	12	23	0.0023	0.052024	0	0	0	0	0	0	1	0	0	14.4537	15.3968	-14.4437	-15.1723	0.0000	0.0000	0.0000	0.0000;
	12	24	0.138677	1.389125	0	0	0	0	0	0	1	0	0	1.0151	-0.5109	-1.0134	0.5283	0.0000	0.0000	0.0000	0.0000;
	12	25	0.049604	1.46468	0	0	0	0	0	0	1	0	0	0.5573	0.2191	-0.5571	-0.2140	0.0000	0.0000	0.0000	0.0000;
	12	62	0.00785	0.159975	0	0	0	0	0	0	1	0	0	21.0528	1.3687	-21.0190	-0.6796	0.0000	0.0000	0.0000	0.0000;
	12	64	0.203016	2.19027	0	0	0	0	0	0	1	0	0	2.4229	-0.1920	-2.4113	0.3172	0.0000	0.0000	0.0000	0.0000;
	12	82	0.002116	0.027225	0.61943	1303.32	0	0	0	0	1	0	0	-367.1021	-39.5967	369.8628	10.1974	0.0000	0.0000	0.0000	0.0000;
	12	82	0.062667	1.187219	0	0	0	0	0	0	1	0	0	-8.4250	-0.3837	8.4681	1.2009	0.0000	0.0000	0.0000	0.0000;
	12	252	0.126266	2.119506	0	0	0	0	0	0	1	0	0	-2.2166	-0.0413	2.2226	0.1421	0.0000	0.0000	0.0000	0.0000;
	13	14	0.000256	0.001131	0	0	0	0	0	0	1	0	0	52.7174	12.3827	-52.7100	-12.3500	0.0000	0.0000	0.0000	0.0000;
	17	13	0.000308	0.003491	0.11293	1192.38	0	0	0	0	1	0	0	180.4755	226.9058	-180.2162	-235.5043	0.0000	0.0000	0.0000	0.0000;
	13	18	0.094703	1.409249	0	0	0	0	0	0	1	0	0	-2.5180	-0.7954	2.5245	0.8924	0.0000	0.0000	0.0000	0.0000;
	13	20	0.001693	0.557226	0	0	0	0	0	0	1	0	0	-3.2306	-1.0093	3.2308	1.0723	0.0000	0.0000	0.0000	0.0000;
	13	22	0.011453	1.202423	0	0	0	0	0	0	1	0	0	-3.3663	-2.1422	3.3681	2.3311	0.0000	0.0000	0.0000	0.0000;
	13	23	0.001152	0.05984	0	0	0	0	0	0	1	0	0	-23.4546	-2.5427	23.4609	2.8714	0.0000	0.0000	0.0000	0.0000;
	13	24	0.00264	0.125686	0	0	0	0	0	0	1	0	0	-5.6151	-12.4845	5.6199	12.7170	0.0000	0.0000	0.0000	0.0000;
	25	13	0.00056	0.006153	0.11822	1204.83	0	0	0	0	1	0	0	223.2097	84.6901	-222.8930	-93.2651	0.0000	0.0000	0.0000	0.0000;
	13	62	0.123179	1.181611	0	0	0	0	0	0	1	0	0	0.9488	-0.6736	-0.9472	0.6893	0.0000	0.0000	0.0000	0.0000;
	13	132	0.109365	1.086068	0	0	0	0	0	0	1	0	0	1.7222	-1.6019	-1.7162	1.6613	0.0000	0.0000	0.0000	0.0000;
	15	20	0.000406	0.00496	0.12515	1137.85	0	0	0	0	1	0	0	-154.9960	-37.1945	155.0954	25.6115	0.0000	0.0000	0.0000	0.0000;
	23	15	0.000272	0.003764	0.11459	1110.9	0	0	0	0	1	0	0	92.0220	-59.4654	-91.9916	48.2137	0.0000	0.0000	0.0000	0.0000;
	15	24	0.06588	2.047336	0	0	0	0	0	0	1	0	0	0.1681	-0.6032	-0.1679	0.6110	0.0000	0.0000	0.0000	0.0000;
	15	62	0.117914	2.009853	0	0	0	0	0	0	1	0	0	1.1111	-0.2126	-1.1096	0.2378	0.0000	0.0000	0.0000	0.0000;
	16	17	0.000263	0.001129	0	0	0	0	0	0	1	0	0	-180.2839	21.1483	180.3681	-20.7871	0.0000	0.0000	0.0000	0.0000;
	16	23	0.002655	0.385338	0	0	0	0	0	0	1	0	0	-2.7406	1.7256	2.7408	-1.6863	0.0000	0.0000	0.0000	0.0000;
	19	17	0.000511	0.005664	0.15077	1237.11	0	0	0	0	1	0	0	234.7439	232.7046	-234.1988	-242.4165	0.0000	0.0000	0.0000	0.0000;
	17	25	0.000417	0.005958	0.09723	1118.63	0	0	0	0	1	0	0	-126.6447	36.2978	126.7166	-45.2704	0.0000	0.0000	0.0000	0.0000;
	18	20	0.014131	0.792418	0	0	0	0	0	0	1	0	0	2.1262	1.0468	-2.1254	-1.0041	0.0000	0.0000	0.0000	0.0000;
	18	23	0.025119	0.290702	0	0	0	0	0	0	1	0	0	7.4074	3.7188	-7.3908	-3.5271	0.0000	0.0000	0.0000	0.0000;
	61	18	0.000817	0.008139	0.23813	1145.78	0	0	0	0	1	0	0	126.1320	-60.2471	-125.9884	36.9446	0.0000	0.0000	0.0000	0.0000;
	18	62	0.099619	1.013165	0	0	0	0	0	0	1	0	0	4.6925	0.3775	-4.6713	-0.1619	0.0000	0.0000	0.0000	0.0000;
	18	107	0.016722	2.057848	0	0	0	0	0	0	1	0	0	-3.6922	-0.8467	3.6945	1.1301	0.0000	0.0000	0.0000	0.0000;
	18	170	0.001669	0.020408	0.42951	1319.14	0	0	0	0	1	0	0	-438.1625	-74.8102	441.2829	67.2873	0.0000	0.0000	0.0000	0.0000;
	18	186	0.077173	1.209195	0	0	0	0	0	0	1	0	0	-11.5514	0.7252	11.6506	0.8300	0.0000	0.0000	0.0000	0.0000;
	18	252	0.003148	0.777201	0	0	0	0	0	0	1	0	0	-4.3163	0.0047	4.3169	0.1344	0.0000	0.0000	0.0000	0.0000;
	19	23	0.006143	1.313097	0	0	0	0	0	0	1	0	0	0.2617	1.6456	-0.2615	-1.6112	0.0000	0.0000	0.0000	0.0000;
	66	19	0.001028	0.011157	0.23075	1312.55	0	0	0	0	1	0	0	374.9100	116.3369	-373.4333	-125.1602	0.0000	0.0000	0.0000	0.0000;
	19	132	0.018374	0.308758	0	0	0	0	0	0	1	0	0	12.6842	1.8980	-12.6557	-1.4187	0.0000	0.0000	0.0000	0.0000;
	19	133	0.000651	0.007215	0.16126	1170.38	0	0	0	0	1	0	0	-136.2283	-147.5166	136.4609	132.8310	0.0000	0.0000	0.0000	0.0000;
	20	21	0.000277	0.001081	0	0	0	0	0	0	1	0	0	62.1709	12.8125	-62.1600	-12.7700	0.0000	0.0000	0.0000	0.0000;
	20	23	2.9e-05	0.069464	0	0	0	0	0	0	1	0	0	5.6632	5.7267	-5.6632	-5.6828	0.0000	0.0000	0.0000	0.0000;
	20	61	0.000673	0.008765	0.28884	1263.14	0	0	0	0	1	0	0	-313.2151	-49.2053	313.8672	27.9412	0.0000	0.0000	0.0000	0.0000;
	20	62	0.07595	1.226917	0	0	0	0	0	0	1	0	0	2.4503	-0.1993	-2.4458	0.2717	0.0000	0.0000	0.0000	0.0000;
	22	24	0.000596	0.007225	0.20622	1372.69	0	0	0	0	1	0	0	480.3542	114.0802	-478.9787	-119.1879	0.0000	0.0000	0.0000	0.0000;
	22	24	0.024948	0.466373	0	0	0	0	0	0	1	0	0	7.3971	2.1560	-7.3832	-1.8967	0.0000	0.0000	0.0000	0.0000;
	22	45	0.002754	0.036539	0.6771	1337.31	0	0	0	0	1	0	0	-429.6195	12.4795	434.4419	-21.1768	0.0000	0.0000	0.0000	0.0000;
	22	66	0.00055	0.006436	0.19102	1263.59	0	0	0	0	1	0	0	-283.0535	-190.0107	283.6328	176.1424	0.0000	0.0000	0.0000	0.0000;
	22	132	0.125522	0.851278	0	0	0	0	0	0	1	0	0	7.3347	0.4824	-7.2711	-0.0516	0.0000	0.0000	0.0000	0.0000;
	22	211	0.038749	0.30676	0	0	0	0	0	0	1	0	0	-14.7850	5.9678	14.8773	-5.2374	0.0000	0.0000	0.0000	0.0000;
	23	24	0.019744	0.256979	0	0	0	0	0	0	1	0	0	2.4804	-5.6276	-2.4731	5.7232	0.0000	0.0000	0.0000	0.0000;
	25	23	0.000589	0.007062	0.11102	1031.53	0	0	0	0	1	0	0	-6.2419	63.4718	6.2695	-74.4820	0.0000	0.0000	0.0000	0.0000;
	23	42	0.023597	0.610561	0	0	0	0	0	0	1	0	0	-29.5181	-1.3048	29.7207	6.5471	0.0000	0.0000	0.0000	0.0000;
	23	48	0.048691	1.158479	0	0	0	0	0	0	1	0	0	-18.3751	0.1405	18.5368	3.7067	0.0000	0.0000	0.0000	0.0000;
	23	61	0.000884	0.011376	0.23272	1226.5	0	0	0	0	1	0	0	-277.5373	-68.9251	278.2353	54.0248	0.0000	0.0000	0.0000	0.0000;
	23	62	0.026095	0.272569	0	0	0	0	0	0	1	0	0	9.3494	-2.6000	-9.3253	2.8524	0.0000	0.0000	0.0000	0.0000;
	23	170	0.001652	0.023343	0.74282	1337.32	0	0	0	0	1	0	0	-470.6576	-125.0690	474.3805	99.5953	0.0000	0.0000	0.0000	0.0000;
	23	276	0.00344	0.04602	1.64956	1472.07	0	0	0	0	1	0	0	-585.0459	-34.7232	596.7076	17.4625	0.0000	0.0000	0.0000	0.0000;
	24	25	0.000602	0.006787	0.23886	1062.79	0	0	0	0	1	0	0	-85.2887	132.4377	85.4516	-155.3405	0.0000	0.0000	0.0000	0.0000;
	24	48	0.053321	0.741967	0	0	0	0	0	0	1	0	0	-29.8746	3.2746	30.3354	3.1385	0.0000	0.0000	0.0000	0.0000;
	24	62	0.026464	0.363879	0	0	0	0	0	0	1	0	0	5.3798	2.1688	-5.3713	-2.0517	0.0000	0.0000	0.0000	0.0000;
	24	112	0.00115	0.556526	0	0	0	0	0	0	1	0	0	3.4396	-3.2929	-3.4393	3.4137	0.0000	0.0000	0.0000	0.0000;
	24	113	0.00115	0.556526	0	0	0	0	0	0	1	0	0	2.6734	-3.3036	-2.6732	3.3998	0.0000	0.0000	0.0000	0.0000;
	24	132	0.029459	0.245458	0	0	0	0	0	0	1	0	0	11.1120	-1.1257	-11.0769	1.4187	0.0000	0.0000	0.0000	0.0000;
	24	135	0.141017	2.241293	0	0	0	0	0	0	1	0	0	-0.6926	0.2333	0.6933	-0.2219	0.0000	0.0000	0.0000	0.0000;
	25	48	0.002939	0.032966	1.42932	1533.44	0	0	0	0	1	0	0	-647.0816	-22.7305	659.1438	7.7691	0.0000	0.0000	0.0000	0.0000;
	26	33	0.001145	0.013347	0.3985	1167.28	0	0	0	0	1	0	0	-193.7297	-89.2811	194.1861	51.9588	0.0000	0.0000	0.0000	0.0000;
	26	179	0.024119	0.601395	0	0	0	0	0	0	1	0	0	-4.9288	-1.9863	4.9352	2.1467	0.0000	0.0000	0.0000	0.0000;
	26	211	0.006527	0.661948	0	0	0	0	0	0	1	0	0	20.7769	2.1943	-20.7500	0.5357	0.0000	0.0000	0.0000	0.0000;
	27	28	0.000266	0.001027	0	0	0	0	0	0	1	0	0	48.4363	13.2943	-48.4300	-13.2700	0.0000	0.0000	0.0000	0.0000;
	27	33	0.02987	0.34006	0	0	0	0	0	0	1	0	0	1.8617	-2.2913	-1.8593	2.3190	0.0000	0.0000	0.0000	0.0000;
	27	117	0.012313	0.696874	0	0	0	0	0	0	1	0	0	-6.9156	-0.2870	6.9211	0.5998	0.0000	0.0000	0.0000	0.0000;
	27	175	0.001233	0.01483	0.19006	1161.1	0	0	0	0	1	0	0	-153.7325	-32.1315	154.0111	15.0976	0.0000	0.0000	0.0000	0.0000;
	27	199	0.014395	0.882291	0	0	0	0	0	0	1	0	0	-9.6517	0.2458	9.6643	0.5249	0.0000	0.0000	0.0000	0.0000;
	27	217	0.035287	0.819134	0	0	0	0	0	0	1	0	0	2.3100	-1.3491	-2.3077	1.4040	0.0000	0.0000	0.0000	0.0000;
	27	266	0.258981	1.559981	0	0	0	0	0	0	1	0	0	-0.0167	0.9193	0.0187	-0.9070	0.0000	0.0000	0.0000	0.0000;
	29	30	0.000242	0.001083	0	0	0	0	0	0	1	0	0	-239.8965	-119.9844	240.0699	120.7603	0.0000	0.0000	0.0000	0.0000;
	29	31	0.000217	0.001042	0	0	0	0	0	0	1	0	0	0.0000	0.0000	0.0000	0.0000	0.0000	0.0000	0.0000	0.0000;
	29	95	0.0018	0.070822	0	0	0	0	0	0	1	0	0	117.3570	-22.3379	-117.1011	32.4028	0.0000	0.0000	0.0000	0.0000;
	212	29	0.0011	0.012	0.26	1100	0	0	0	0	1	0	0	21.3812	61.5273	-21.3160	-87.1648	0.0000	0.0000	0.0000	0.0000;
	29	2333	0.016022	0.242648	0	0	0	0	0	0	1	0	0	17.1631	-6.6252	-17.1091	7.4430	0.0000	0.0000	0.0000	0.0000;
	106	30	0.003047	0.033367	0.51462	1038.29	0	0	0	0	1	0	0	47.5612	-1.7096	-47.4760	-49.7211	0.0000	0.0000	0.0000	0.0000;
	30	2328	0.002796	0.038534	0.7293	1220.24	0	0	0	0	1	0	0	-192.5939	-71.0392	193.6554	10.5929	0.0000	0.0000	0.0000	0.0000;
	33	32	0.000117	0.008837	0	1409.3	0	0	1	0	1	0	0	-285.3041	-30.3834	285.3931	37.1085	0.0000	0.0000	0.0000	0.0000;
	32	34	0.00011	0.009473	0	1371.62	0	0	1.03125	0	1	0	0	-85.2786	-58.1226	85.2900	59.1085	0.0000	0.0000	0.0000	0.0000;
	32	35	0.000114	0.009549	0	1369.65	0	0	1.03125	0	1	0	0	-138.6250	-56.4312	138.6500	58.5214	0.0000	0.0000	0.0000	0.0000;
	32	36	9.4e-05	0.007209	0	1369.41	0	0	1.03125	0	1	0	0	-120.6137	-56.3874	120.6300	57.6361	0.0000	0.0000	0.0000	0.0000;
	32	37	0.000144	0.010392	0	1368.2	0	0	1.03125	0	1	0	0	-109.9083	-57.9027	109.9300	59.4698	0.0000	0.0000	0.0000	0.0000;
	32	119	0.000109	0.003064	1.70908	4069.09	0	0	0	0	1	0	0	-828.2305	124.0273	828.9647	-288.4719	0.0000	0.0000	0.0000	0.0000;
	32	178	6.3e-05	0.001807	0.77514	3916.79	0	0	0	0	1	0	0	128.9165	64.2572	-128.9003	-148.0016	0.0000	0.0000	0.0000	0.0000;
	229	32	0.000267	0.008217	3.72116	4131.05	0	0	0	0	1	0	0	-866.3927	-342.0791	868.3465	3.4510	0.0000	0.0000	0.0000	0.0000;
	33	38	0.000751	0.047881	0	246.76	0	0	1.04375	0	1	0	0	-9.0192	-4.8997	9.0200	4.9505	0.0000	0.0000	0.0000	0.0000;
	33	179	0.268187	2.390316	0	0	0	0	0	0	1	0	0	-0.1778	-0.0608	0.1779	0.0616	0.0000	0.0000	0.0000	0.0000;
	33	184	0.000744	0.008155	0.2455	1037.07	0	0	0	0	1	0	0	-20.8971	-33.2818	20.9028	6.7445	0.0000	0.0000	0.0000	0.0000;
	33	211	0.157059	2.0812	0	0	0	0	0	0	1	0	0	7.9274	0.9077	-7.8349	0.3172	0.0000	0.0000	0.0000	0.0000;
	33	217	0.043376	1.001809	0	0	0	0	0	0	1	0	0	1.2268	-0.3627	-1.2261	0.3779	0.0000	0.0000	0.0000	0.0000;
	39	195	0.294602	1.610546	0	0	0	0	0	0	1	0	0	10.5304	-4.4097	-10.1135	6.6893	0.0000	0.0000	0.0000	0.0000;
	39	220	0.004186	0.62371	0	0	0	0	0	0	1	0	0	25.4461	-10.5208	-25.4117	15.6563	0.0000	0.0000	0.0000	0.0000;
	39	406	0.083884	1.347328	0	0	0	0	0	0	1	0	0	11.0175	-5.4744	-10.8796	7.6889	0.0000	0.0000	0.0000	0.0000;
	40	135	0.179857	0.850277	0	0	0	0	0	0	1	0	0	8.5200	2.1679	-8.3935	-1.5699	0.0000	0.0000	0.0000	0.0000;
	40	150	0.013062	0.260418	0	0	0	0	0	0	1	0	0	1.2359	3.6846	-1.2341	-3.6488	0.0000	0.0000	0.0000	0.0000;
	41	135	0.179857	0.850277	0	0	0	0	0	0	1	0	0	9.0576	2.1035	-8.9161	-1.4346	0.0000	0.0000	0.0000	0.0000;
	41	150	0.013062	0.260418	0	0	0	0	0	0	1	0	0	3.0719	3.6418	-3.0692	-3.5880	0.0000	0.0000	0.0000	0.0000;
	42	43	0.000728	0.041443	0	420.33	0	0	1.03125	0	1	0	0	-79.3727	17.1240	79.4200	-14.4301	0.0000	0.0000	0.0000	0.0000;
	42	44	0.000238	0.001008	0	0	0	0	0	0	1	0	0	1.1900	0.4500	-1.1900	-0.4500	0.0000	0.0000	0.0000	0.0000;
	42	45	0.000208	0.001102	0	0	0	0	0	0	1	0	0	-30.8066	-16.9593	30.8090	16.9719	0.0000	0.0000	0.0000	0.0000;
	42	62	0.148038	2.318231	0	0	0	0	0	0	1	0	0	9.0339	1.4463	-8.9191	0.3526	0.0000	0.0000	0.0000	0.0000;
	45	56	0.001483	0.018455	0.35262	1199.55	0	0	0	0	1	0	0	-221.2576	15.0006	221.9462	-44.4085	0.0000	0.0000	0.0000	0.0000;
	45	217	0.001496	0.017808	0.20963	1197.59	0	0	0	0	1	0	0	-243.9933	-10.7957	244.8185	-2.0973	0.0000	0.0000	0.0000	0.0000;
	46	195	0.070626	0.444377	0	0	0	0	0	0	1	0	0	27.7512	6.9103	-27.2376	-3.6787	0.0000	0.0000	0.0000	0.0000;
	46	230	0.002613	0.195125	0	0	0	0	0	0	1	0	0	67.2850	2.1357	-67.1797	5.7269	0.0000	0.0000	0.0000	0.0000;
	48	47	0.000122	0.00891	0	1500.23	0	0	1.0125	0	1	0	0	-521.8727	-30.5529	522.1903	53.7503	0.0000	0.0000	0.0000	0.0000;
	47	49	0.000128	0.01077	0	1518.59	0	0	1.01875	0	1	0	0	-171.1230	13.6793	171.1600	-10.5671	0.0000	0.0000	0.0000	0.0000;
	47	50	9.8e-05	0.007513	0	1517.03	0	0	1.01875	0	1	0	0	-189.6353	12.8955	189.6700	-10.2341	0.0000	0.0000	0.0000	0.0000;
	47	51	0.000131	0.009968	0	1515.27	0	0	1.01875	0	1	0	0	-135.9261	12.5860	135.9500	-10.7647	0.0000	0.0000	0.0000	0.0000;
	47	52	8.4e-05	0.006774	0	1513.23	0	0	1.01875	0	1	0	0	-189.3404	12.1364	189.3700	-9.7454	0.0000	0.0000	0.0000	0.0000;
	47	53	5e-05	0.003603	0	1505.34	0	0	1.0125	0	1	0	0	-172.4155	11.6651	172.4300	-10.6230	0.0000	0.0000	0.0000	0.0000;
	47	54	0.00028	0.001189	0	0	0	0	0	0	1	0	0	336.2499	-459.6517	-335.3919	463.2951	0.0000	0.0000	0.0000	0.0000;
	56	48	0.000684	0.007909	0.17775	1094.29	0	0	0	0	1	0	0	84.5941	-24.6205	-84.5471	6.0479	0.0000	0.0000	0.0000	0.0000;
	48	62	0.072138	0.739791	0	0	0	0	0	0	1	0	0	32.8603	3.9282	-32.1261	3.6014	0.0000	0.0000	0.0000	0.0000;
	48	112	0.007764	0.940974	0	0	0	0	0	0	1	0	0	26.1999	2.4855	-26.1499	3.5710	0.0000	0.0000	0.0000	0.0000;
	48	113	0.007764	0.940974	0	0	0	0	0	0	1	0	0	25.7511	2.3851	-25.7029	3.4633	0.0000	0.0000	0.0000	0.0000;
	48	153	0.112976	2.468416	0	0	0	0	0	0	1	0	0	7.0635	1.2376	-7.0095	-0.0579	0.0000	0.0000	0.0000	0.0000;
	276	48	0.001688	0.019496	0.41561	1258.58	0	0	0	0	1	0	0	310.3042	-20.3213	-308.8047	-7.2477	0.0000	0.0000	0.0000	0.0000;
...